                                  MODFLOW-NWT-SWR1 
      U.S. GEOLOGICAL SURVEY MODULAR FINITE-DIFFERENCE GROUNDWATER-FLOW MODEL
                            VERSION 1.2.0 03/01/2020
                    BASED ON MODFLOW-2005 VERSION 1.12.00 02/03/2017

 LIST FILE: etdemand_well.list
                         UNIT    2

 OPENING etdemand_well.dis
 FILE TYPE:DIS   UNIT   11   STATUS:OLD    
 FORMAT:FORMATTED              ACCESS:SEQUENTIAL          

 OPENING etdemand_well.bas
 FILE TYPE:BAS6   UNIT   13   STATUS:OLD    
 FORMAT:FORMATTED              ACCESS:SEQUENTIAL          

 OPENING etdemand_well.upw
 FILE TYPE:UPW   UNIT   31   STATUS:OLD    
 FORMAT:FORMATTED              ACCESS:SEQUENTIAL          

 OPENING etdemand_well.uzf
 FILE TYPE:UZF   UNIT   19   STATUS:OLD    
 FORMAT:FORMATTED              ACCESS:SEQUENTIAL          

 OPENING etdemand_well.oc
 FILE TYPE:OC   UNIT   14   STATUS:OLD    
 FORMAT:FORMATTED              ACCESS:SEQUENTIAL          

 OPENING etdemand_well.nwt
 FILE TYPE:NWT   UNIT   32   STATUS:OLD    
 FORMAT:FORMATTED              ACCESS:SEQUENTIAL          

 OPENING etdemand_well.ag
 FILE TYPE:AG   UNIT   69   STATUS:OLD    
 FORMAT:FORMATTED              ACCESS:SEQUENTIAL          

 OPENING etdemand_well.cbc
 FILE TYPE:DATA(BINARY)   UNIT   52   STATUS:REPLACE
 FORMAT:BINARY                 ACCESS:SEQUENTIAL          

 OPENING etdemand_well.hds
 FILE TYPE:DATA(BINARY)   UNIT   51   STATUS:REPLACE
 FORMAT:BINARY                 ACCESS:SEQUENTIAL          

 OPENING etdemand_well.well1.txt
 FILE TYPE:DATA   UNIT   53   STATUS:UNKNOWN
 FORMAT:FORMATTED              ACCESS:SEQUENTIAL          

 OPENING etdemand_well.well2.txt
 FILE TYPE:DATA   UNIT   54   STATUS:UNKNOWN
 FORMAT:FORMATTED              ACCESS:SEQUENTIAL          

 BAS -- BASIC PACKAGE, VERSION 1.2.0, 3/01/2020 INPUT READ FROM UNIT   13
 
 MODFLOW was compiled using mixed precision
 Precision of REAL variables:           6
 Precision of DOUBLE PRECISION variables:          15

 DISCRETIZATION INPUT DATA READ FROM UNIT   11
 # DIS package for MODFLOW-NWT generated by Flopy 3.3.6
    1 LAYERS        10 ROWS        10 COLUMNS
   12 STRESS PERIOD(S) IN SIMULATION
 MODEL TIME UNIT IS DAYS
 MODEL LENGTH UNIT IS METERS
  Confining bed flag for each layer:
   0

                     DELR =   63.6000    

                     DELC =   63.6000    

 TOP ELEVATION OF LAYER 1 =   100.000    

   MODEL LAYER BOTTOM EL. =   0.00000     FOR LAYER   1


 STRESS PERIOD     LENGTH       TIME STEPS     MULTIPLIER FOR DELT    SS FLAG
 ----------------------------------------------------------------------------
        1         31.00000         31                    1.000         TR
        2         28.00000         28                    1.000         TR
        3         31.00000         31                    1.000         TR
        4         30.00000         30                    1.000         TR
        5         31.00000         31                    1.000         TR
        6         30.00000         30                    1.000         TR
        7         31.00000         31                    1.000         TR
        8         31.00000         31                    1.000         TR
        9         30.00000         30                    1.000         TR
       10         31.00000         31                    1.000         TR
       11         30.00000         30                    1.000         TR
       12         31.00000         31                    1.000         TR

 TRANSIENT SIMULATION



 
 # BAS6 package for MODFLOW-NWT generated by Flopy 3.3.6                         
 THE FREE FORMAT OPTION HAS BEEN SELECTED



                     BOUNDARY ARRAY FOR LAYER   1
 READING ON UNIT   13 WITH FORMAT: (10I10)             

 AQUIFER HEAD WILL BE SET TO  -999.99     AT ALL NO-FLOW NODES (IBOUND=0).



                       INITIAL HEAD FOR LAYER   1
 READING ON UNIT   13 WITH FORMAT: (10E15.6)           
 # OC package for MODFLOW-NWT generated by Flopy 3.3.6

 OUTPUT CONTROL IS SPECIFIED ONLY AT TIME STEPS FOR WHICH OUTPUT IS DESIRED
 COMPACT CELL-BY-CELL BUDGET FILES WILL BE WRITTEN
 AUXILIARY DATA WILL BE SAVED IN CELL-BY-CELL BUDGET FILES
 HEAD PRINT FORMAT CODE IS   0    DRAWDOWN PRINT FORMAT CODE IS   0
 HEADS WILL BE SAVED ON UNIT   51    DRAWDOWNS WILL BE SAVED ON UNIT    0
 # NWT package for MODFLOW-NWT generated by Flopy 3.3.6

 NWT1 -- Newton Solver, VERSION 1.2.0, 3/01/2020
         INPUT READ FROM UNIT 32

 COMPLEX OPTION:
 DEFAULT SOLVER INPUT VALUES REFLECT STRONGLY NONLINEAR MODEL
 ***GMRES linear solver will be used***
 
   CONVERGENCE CRITERION OF   0.200000E-01 FOR HEAD SOLUTION
   AND A TOLERANCE OF   0.500000E+02 FOR FLOW SOLUTION AND 
   A MAXIMUM OF   100 OUTER ITERATIONS. 


   D-B-D REDUCTION FACTOR OF    0.850000E+00 AND 
   A D-B-D INCREASE FACTOR OF    0.100000E-04 AND 
   A D-B-D RELAXATION OF    0.000000E+00 AND 
   A MOMENTUM FACTOR OF    0.100000E+00 .


   BACKTRACKING IS ACTIVE 
   THE MAXIMUM NUMBER OF BACKTRACKS IS    50 AND 
   THE BACKTRACKING TOLERANCE IS    0.110000E+01 AND
   THE BACKTRACKING REDUCTION FACTOR IS    0.700000E+00

 GMRES -- LINEAR SOLUTION BY GMRES PACKAGE 
     adapted for HYDROTHERM by Kipp and others (2008)
     using software originally developed by Saad (1990) 32
     using algorithms described in Saad (2003)

 UPW1 -- UPSTREAM WEIGHTING FLOW PACKAGE, VERSION 1.2.0, 3/01/2020
         INPUT READ FROM UNIT 31

 # UPW package for MODFLOW-NWT generated by Flopy 3.3.6
 CELL-BY-CELL FLOWS WILL BE SAVED ON UNIT   52
 No named parameters

   LAYER FLAGS:
 LAYER       LAYTYP          LAYAVG    CHANI           LAYVKA           LAYWET
 ---------------------------------------------------------------------------
    1             1             0     1.000E+00             0             0

   INTERPRETATION OF LAYER FLAGS:
                        INTERBLOCK     HORIZONTAL    DATA IN
         LAYER TYPE   TRANSMISSIVITY   ANISOTROPY   ARRAY VKA   WETTABILITY
 LAYER   (LAYTYP)        (LAYAVG)      (CHANI)     (LAYVKA)       (LAYWET)
 ---------------------------------------------------------------------------
    1   CONVERTIBLE      HARMONIC     1.000E+00    VERTICAL K  NON-WETTABLE

    HYD. COND. ALONG ROWS =   1.00000     FOR LAYER   1

      VERTICAL HYD. COND. =   1.00000     FOR LAYER   1

         SPECIFIC STORAGE =  1.000000E-05 FOR LAYER   1

           SPECIFIC YIELD =  0.150000     FOR LAYER   1

 UZF1 -- UNSATURATED FLOW PACKAGE, VERSION 1.5, 09/10/2019
         INPUT READ FROM UNIT 19
 # UZF package for MODFLOW-NWT generated by Flopy 3.3.6
 No named parameters

 PROCESSING UZF OPTIONS
 
 
 RESIDUAL WATER CONTENT (THTR) WILL BE 
READ AND USED FOR THE FIRST TRANSIENT STRESS 
PERIOD
 
 
 INITIAL WATER CONTENT (THTI) WILL BE 
READ FOR THE FIRST SS OR TR STRESS PERIOD
 

 END PROCESSING UZF OPTIONS



            AREAL EXTENT OF UZ FLOW
 READING ON UNIT   19 WITH FORMAT: (10I10)             
 OPTION 1 -- RECHARGE IN UZF TO TOP LAYER ONLY 

     SATURATED VERTICAL K =   8.64000    

     BROOKS-COREY EPSILON =   5.00000    

  SATURATED WATER CONTENT =  0.350000    

   RESIDUAL WATER CONTENT =  5.000000E-02

    INITIAL WATER CONTENT =  8.000000E-02

 AG -- AG PACKAGE FOR NWT VERSION 1.1.3,  8/01/2017 INPUT READ FROM UNIT   69
 # AG package for MODFLOW-NWT generated by Flopy 3.3.6

 PROCESSING AG OPTIONS
 
 OPTION TO APPLY PUMPED WATER AS IRRIGATION IS ACTIVE. PUMPED IRRIGATION WATER WILL BE APPLIED TO          2 CELLS/RHUS.
 
 
 THE MAXIMUM NUMBER OF WELLS FOR SUPPLEMENTING DIVERSIONS OR APPLYING IRRIGATION IS          2 WELLS.
 
 
 AGRICULTURAL DEMANDS WILL BE CALCULATED USING ET DEFICIT
 
 
  GROUND WATER IRRIGATION, POTENTIAL AND ACTUAL ET WILL BE SAVED TO TIMES SERIES OUTPUT FILES.
 
 
  UNFORMATTED CELL BY CELL RATES FOR SUP AND IRR WELLS WILL BE SAVED TO FILE UNIT NUMBER         52
 

 END PROCESSING AG OPTIONS
 # ag time series

 PROCESSING TIME SERIES

 FINISHED READING TIME SERIES
 A total number of          0 AG output time series files were activated for SURFACE WATER 
 A total number of          2 AG output time series files were activated for GROUNDWATER 
 A total number of          0 AG output time series files were activated for SURFACE WATER ET
 A total number of          0 AG output time series files were activated for GROUNDWATER ET
1
                            STRESS PERIOD NO.    1, LENGTH =   31.00000    
                            -----------------------------------------------

                              NUMBER OF TIME STEPS =    31

                               MULTIPLIER FOR DELT =     1.000

                            INITIAL TIME STEP SIZE =   1.000000    



            AREAL INFILTRATION RATE
 READING ON UNIT   19 WITH FORMAT: (10E15.6)           



                            ET RATE
 READING ON UNIT   19 WITH FORMAT: (10E15.6)           



                ET EXTINCTION DEPTH
 READING ON UNIT   19 WITH FORMAT: (10E15.6)           



           EXTINCTION WATER CONTENT
 READING ON UNIT   19 WITH FORMAT: (10E15.6)           
 # segment list for irrigation diversions

 PROCESSING SEGMENT LIST

 FINISHED READING SEGMENT LIST
 # ag well list

 PROCESSING WELL LIST

 LAYER   ROW   COL   MAX STRESS RATE         
 --------------------------------------------
      1      1      6      5      -100.0    
      2      1      2      3      -50.00    

 FINISHED READING WELL LIST

      2 WELLS

 PROCESSING AG STRESS PERIOD DATA
 # ag stress period data

 READING AG STRESS PERIOD DATA

 READING IRRIGATION WELL

 END PROCESSING AG STRESS PERIOD DATA OPTIONS
 
 SOLVING FOR HEAD 

    ------------------------------------------------
       NWT REQUIRED            1 OUTER ITERATIONS 
       AND A TOTAL OF          2 INNER ITERATIONS.
    ------------------------------------------------

 OUTPUT CONTROL FOR STRESS PERIOD    1   TIME STEP    1
    SAVE HEAD FOR ALL LAYERS
    SAVE BUDGET
 UBDSV1 SAVING "         STORAGE" ON UNIT  52 AT TIME STEP  1, STRESS PERIOD   1
 UBDSV2 SAVING "   CONSTANT HEAD" ON UNIT  52 AT TIME STEP  1, STRESS PERIOD   1
 UBDSV1 SAVING "FLOW RIGHT FACE " ON UNIT  52 AT TIME STEP  1, STRESS PERIOD   1
 UBDSV1 SAVING "FLOW FRONT FACE " ON UNIT  52 AT TIME STEP  1, STRESS PERIOD   1
 UBUDSV SAVING "           GW ET" ON UNIT 52 AT TIME STEP  1, STRESS PERIOD    1
 UBUDSV SAVING "    UZF RECHARGE" ON UNIT 52 AT TIME STEP  1, STRESS PERIOD    1
 UBUDSV SAVING " SURFACE LEAKAGE" ON UNIT 52 AT TIME STEP  1, STRESS PERIOD    1
 UBUDSV SAVING "       HORT+DUNN" ON UNIT 52 AT TIME STEP  1, STRESS PERIOD    1
 UBUDSV SAVING "  STORAGE CHANGE" ON UNIT 52 AT TIME STEP  1, STRESS PERIOD    1
 UBDSV4 SAVING "           AG WE" ON UNIT  52 AT TIME STEP  1, STRESS PERIOD   1

 HEAD WILL BE SAVED ON UNIT   51 AT END OF TIME STEP    1, STRESS PERIOD    1
 
 SOLVING FOR HEAD 

    ------------------------------------------------
       NWT REQUIRED            1 OUTER ITERATIONS 
       AND A TOTAL OF          2 INNER ITERATIONS.
    ------------------------------------------------

 OUTPUT CONTROL FOR STRESS PERIOD    1   TIME STEP    2
    SAVE HEAD FOR ALL LAYERS
    SAVE BUDGET
 UBDSV1 SAVING "         STORAGE" ON UNIT  52 AT TIME STEP  2, STRESS PERIOD   1
 UBDSV2 SAVING "   CONSTANT HEAD" ON UNIT  52 AT TIME STEP  2, STRESS PERIOD   1
 UBDSV1 SAVING "FLOW RIGHT FACE " ON UNIT  52 AT TIME STEP  2, STRESS PERIOD   1
 UBDSV1 SAVING "FLOW FRONT FACE " ON UNIT  52 AT TIME STEP  2, STRESS PERIOD   1
 UBUDSV SAVING "           GW ET" ON UNIT 52 AT TIME STEP  2, STRESS PERIOD    1
 UBUDSV SAVING "    UZF RECHARGE" ON UNIT 52 AT TIME STEP  2, STRESS PERIOD    1
 UBUDSV SAVING " SURFACE LEAKAGE" ON UNIT 52 AT TIME STEP  2, STRESS PERIOD    1
 UBUDSV SAVING "       HORT+DUNN" ON UNIT 52 AT TIME STEP  2, STRESS PERIOD    1
 UBUDSV SAVING "  STORAGE CHANGE" ON UNIT 52 AT TIME STEP  2, STRESS PERIOD    1
 UBDSV4 SAVING "           AG WE" ON UNIT  52 AT TIME STEP  2, STRESS PERIOD   1

 HEAD WILL BE SAVED ON UNIT   51 AT END OF TIME STEP    2, STRESS PERIOD    1
 
 SOLVING FOR HEAD 

    ------------------------------------------------
       NWT REQUIRED            1 OUTER ITERATIONS 
       AND A TOTAL OF          2 INNER ITERATIONS.
    ------------------------------------------------

 OUTPUT CONTROL FOR STRESS PERIOD    1   TIME STEP    3
    SAVE HEAD FOR ALL LAYERS
    SAVE BUDGET
 UBDSV1 SAVING "         STORAGE" ON UNIT  52 AT TIME STEP  3, STRESS PERIOD   1
 UBDSV2 SAVING "   CONSTANT HEAD" ON UNIT  52 AT TIME STEP  3, STRESS PERIOD   1
 UBDSV1 SAVING "FLOW RIGHT FACE " ON UNIT  52 AT TIME STEP  3, STRESS PERIOD   1
 UBDSV1 SAVING "FLOW FRONT FACE " ON UNIT  52 AT TIME STEP  3, STRESS PERIOD   1
 UBUDSV SAVING "           GW ET" ON UNIT 52 AT TIME STEP  3, STRESS PERIOD    1
 UBUDSV SAVING "    UZF RECHARGE" ON UNIT 52 AT TIME STEP  3, STRESS PERIOD    1
 UBUDSV SAVING " SURFACE LEAKAGE" ON UNIT 52 AT TIME STEP  3, STRESS PERIOD    1
 UBUDSV SAVING "       HORT+DUNN" ON UNIT 52 AT TIME STEP  3, STRESS PERIOD    1
 UBUDSV SAVING "  STORAGE CHANGE" ON UNIT 52 AT TIME STEP  3, STRESS PERIOD    1
 UBDSV4 SAVING "           AG WE" ON UNIT  52 AT TIME STEP  3, STRESS PERIOD   1

 HEAD WILL BE SAVED ON UNIT   51 AT END OF TIME STEP    3, STRESS PERIOD    1
 
 SOLVING FOR HEAD 

    ------------------------------------------------
       NWT REQUIRED            1 OUTER ITERATIONS 
       AND A TOTAL OF          2 INNER ITERATIONS.
    ------------------------------------------------

 OUTPUT CONTROL FOR STRESS PERIOD    1   TIME STEP    4
    SAVE HEAD FOR ALL LAYERS
    SAVE BUDGET
 UBDSV1 SAVING "         STORAGE" ON UNIT  52 AT TIME STEP  4, STRESS PERIOD   1
 UBDSV2 SAVING "   CONSTANT HEAD" ON UNIT  52 AT TIME STEP  4, STRESS PERIOD   1
 UBDSV1 SAVING "FLOW RIGHT FACE " ON UNIT  52 AT TIME STEP  4, STRESS PERIOD   1
 UBDSV1 SAVING "FLOW FRONT FACE " ON UNIT  52 AT TIME STEP  4, STRESS PERIOD   1
 UBUDSV SAVING "           GW ET" ON UNIT 52 AT TIME STEP  4, STRESS PERIOD    1
 UBUDSV SAVING "    UZF RECHARGE" ON UNIT 52 AT TIME STEP  4, STRESS PERIOD    1
 UBUDSV SAVING " SURFACE LEAKAGE" ON UNIT 52 AT TIME STEP  4, STRESS PERIOD    1
 UBUDSV SAVING "       HORT+DUNN" ON UNIT 52 AT TIME STEP  4, STRESS PERIOD    1
 UBUDSV SAVING "  STORAGE CHANGE" ON UNIT 52 AT TIME STEP  4, STRESS PERIOD    1
 UBDSV4 SAVING "           AG WE" ON UNIT  52 AT TIME STEP  4, STRESS PERIOD   1

 HEAD WILL BE SAVED ON UNIT   51 AT END OF TIME STEP    4, STRESS PERIOD    1
 
 SOLVING FOR HEAD 

    ------------------------------------------------
       NWT REQUIRED            1 OUTER ITERATIONS 
       AND A TOTAL OF          2 INNER ITERATIONS.
    ------------------------------------------------

 OUTPUT CONTROL FOR STRESS PERIOD    1   TIME STEP    5
    SAVE HEAD FOR ALL LAYERS
    SAVE BUDGET
 UBDSV1 SAVING "         STORAGE" ON UNIT  52 AT TIME STEP  5, STRESS PERIOD   1
 UBDSV2 SAVING "   CONSTANT HEAD" ON UNIT  52 AT TIME STEP  5, STRESS PERIOD   1
 UBDSV1 SAVING "FLOW RIGHT FACE " ON UNIT  52 AT TIME STEP  5, STRESS PERIOD   1
 UBDSV1 SAVING "FLOW FRONT FACE " ON UNIT  52 AT TIME STEP  5, STRESS PERIOD   1
 UBUDSV SAVING "           GW ET" ON UNIT 52 AT TIME STEP  5, STRESS PERIOD    1
 UBUDSV SAVING "    UZF RECHARGE" ON UNIT 52 AT TIME STEP  5, STRESS PERIOD    1
 UBUDSV SAVING " SURFACE LEAKAGE" ON UNIT 52 AT TIME STEP  5, STRESS PERIOD    1
 UBUDSV SAVING "       HORT+DUNN" ON UNIT 52 AT TIME STEP  5, STRESS PERIOD    1
 UBUDSV SAVING "  STORAGE CHANGE" ON UNIT 52 AT TIME STEP  5, STRESS PERIOD    1
 UBDSV4 SAVING "           AG WE" ON UNIT  52 AT TIME STEP  5, STRESS PERIOD   1

 HEAD WILL BE SAVED ON UNIT   51 AT END OF TIME STEP    5, STRESS PERIOD    1
 
 SOLVING FOR HEAD 

    ------------------------------------------------
       NWT REQUIRED            1 OUTER ITERATIONS 
       AND A TOTAL OF          2 INNER ITERATIONS.
    ------------------------------------------------

 OUTPUT CONTROL FOR STRESS PERIOD    1   TIME STEP    6
    SAVE HEAD FOR ALL LAYERS
    SAVE BUDGET
 UBDSV1 SAVING "         STORAGE" ON UNIT  52 AT TIME STEP  6, STRESS PERIOD   1
 UBDSV2 SAVING "   CONSTANT HEAD" ON UNIT  52 AT TIME STEP  6, STRESS PERIOD   1
 UBDSV1 SAVING "FLOW RIGHT FACE " ON UNIT  52 AT TIME STEP  6, STRESS PERIOD   1
 UBDSV1 SAVING "FLOW FRONT FACE " ON UNIT  52 AT TIME STEP  6, STRESS PERIOD   1
 UBUDSV SAVING "           GW ET" ON UNIT 52 AT TIME STEP  6, STRESS PERIOD    1
 UBUDSV SAVING "    UZF RECHARGE" ON UNIT 52 AT TIME STEP  6, STRESS PERIOD    1
 UBUDSV SAVING " SURFACE LEAKAGE" ON UNIT 52 AT TIME STEP  6, STRESS PERIOD    1
 UBUDSV SAVING "       HORT+DUNN" ON UNIT 52 AT TIME STEP  6, STRESS PERIOD    1
 UBUDSV SAVING "  STORAGE CHANGE" ON UNIT 52 AT TIME STEP  6, STRESS PERIOD    1
 UBDSV4 SAVING "           AG WE" ON UNIT  52 AT TIME STEP  6, STRESS PERIOD   1

 HEAD WILL BE SAVED ON UNIT   51 AT END OF TIME STEP    6, STRESS PERIOD    1
 
 SOLVING FOR HEAD 

    ------------------------------------------------
       NWT REQUIRED            1 OUTER ITERATIONS 
       AND A TOTAL OF          2 INNER ITERATIONS.
    ------------------------------------------------

 OUTPUT CONTROL FOR STRESS PERIOD    1   TIME STEP    7
    SAVE HEAD FOR ALL LAYERS
    SAVE BUDGET
 UBDSV1 SAVING "         STORAGE" ON UNIT  52 AT TIME STEP  7, STRESS PERIOD   1
 UBDSV2 SAVING "   CONSTANT HEAD" ON UNIT  52 AT TIME STEP  7, STRESS PERIOD   1
 UBDSV1 SAVING "FLOW RIGHT FACE " ON UNIT  52 AT TIME STEP  7, STRESS PERIOD   1
 UBDSV1 SAVING "FLOW FRONT FACE " ON UNIT  52 AT TIME STEP  7, STRESS PERIOD   1
 UBUDSV SAVING "           GW ET" ON UNIT 52 AT TIME STEP  7, STRESS PERIOD    1
 UBUDSV SAVING "    UZF RECHARGE" ON UNIT 52 AT TIME STEP  7, STRESS PERIOD    1
 UBUDSV SAVING " SURFACE LEAKAGE" ON UNIT 52 AT TIME STEP  7, STRESS PERIOD    1
 UBUDSV SAVING "       HORT+DUNN" ON UNIT 52 AT TIME STEP  7, STRESS PERIOD    1
 UBUDSV SAVING "  STORAGE CHANGE" ON UNIT 52 AT TIME STEP  7, STRESS PERIOD    1
 UBDSV4 SAVING "           AG WE" ON UNIT  52 AT TIME STEP  7, STRESS PERIOD   1

 HEAD WILL BE SAVED ON UNIT   51 AT END OF TIME STEP    7, STRESS PERIOD    1
 
 SOLVING FOR HEAD 

    ------------------------------------------------
       NWT REQUIRED            1 OUTER ITERATIONS 
       AND A TOTAL OF          2 INNER ITERATIONS.
    ------------------------------------------------

 OUTPUT CONTROL FOR STRESS PERIOD    1   TIME STEP    8
    SAVE HEAD FOR ALL LAYERS
    SAVE BUDGET
 UBDSV1 SAVING "         STORAGE" ON UNIT  52 AT TIME STEP  8, STRESS PERIOD   1
 UBDSV2 SAVING "   CONSTANT HEAD" ON UNIT  52 AT TIME STEP  8, STRESS PERIOD   1
 UBDSV1 SAVING "FLOW RIGHT FACE " ON UNIT  52 AT TIME STEP  8, STRESS PERIOD   1
 UBDSV1 SAVING "FLOW FRONT FACE " ON UNIT  52 AT TIME STEP  8, STRESS PERIOD   1
 UBUDSV SAVING "           GW ET" ON UNIT 52 AT TIME STEP  8, STRESS PERIOD    1
 UBUDSV SAVING "    UZF RECHARGE" ON UNIT 52 AT TIME STEP  8, STRESS PERIOD    1
 UBUDSV SAVING " SURFACE LEAKAGE" ON UNIT 52 AT TIME STEP  8, STRESS PERIOD    1
 UBUDSV SAVING "       HORT+DUNN" ON UNIT 52 AT TIME STEP  8, STRESS PERIOD    1
 UBUDSV SAVING "  STORAGE CHANGE" ON UNIT 52 AT TIME STEP  8, STRESS PERIOD    1
 UBDSV4 SAVING "           AG WE" ON UNIT  52 AT TIME STEP  8, STRESS PERIOD   1

 HEAD WILL BE SAVED ON UNIT   51 AT END OF TIME STEP    8, STRESS PERIOD    1
 
 SOLVING FOR HEAD 

    ------------------------------------------------
       NWT REQUIRED            1 OUTER ITERATIONS 
       AND A TOTAL OF          2 INNER ITERATIONS.
    ------------------------------------------------

 OUTPUT CONTROL FOR STRESS PERIOD    1   TIME STEP    9
    SAVE HEAD FOR ALL LAYERS
    SAVE BUDGET
 UBDSV1 SAVING "         STORAGE" ON UNIT  52 AT TIME STEP  9, STRESS PERIOD   1
 UBDSV2 SAVING "   CONSTANT HEAD" ON UNIT  52 AT TIME STEP  9, STRESS PERIOD   1
 UBDSV1 SAVING "FLOW RIGHT FACE " ON UNIT  52 AT TIME STEP  9, STRESS PERIOD   1
 UBDSV1 SAVING "FLOW FRONT FACE " ON UNIT  52 AT TIME STEP  9, STRESS PERIOD   1
 UBUDSV SAVING "           GW ET" ON UNIT 52 AT TIME STEP  9, STRESS PERIOD    1
 UBUDSV SAVING "    UZF RECHARGE" ON UNIT 52 AT TIME STEP  9, STRESS PERIOD    1
 UBUDSV SAVING " SURFACE LEAKAGE" ON UNIT 52 AT TIME STEP  9, STRESS PERIOD    1
 UBUDSV SAVING "       HORT+DUNN" ON UNIT 52 AT TIME STEP  9, STRESS PERIOD    1
 UBUDSV SAVING "  STORAGE CHANGE" ON UNIT 52 AT TIME STEP  9, STRESS PERIOD    1
 UBDSV4 SAVING "           AG WE" ON UNIT  52 AT TIME STEP  9, STRESS PERIOD   1

 HEAD WILL BE SAVED ON UNIT   51 AT END OF TIME STEP    9, STRESS PERIOD    1
 
 SOLVING FOR HEAD 

    ------------------------------------------------
       NWT REQUIRED            1 OUTER ITERATIONS 
       AND A TOTAL OF          2 INNER ITERATIONS.
    ------------------------------------------------

 OUTPUT CONTROL FOR STRESS PERIOD    1   TIME STEP   10
    SAVE HEAD FOR ALL LAYERS
    SAVE BUDGET
 UBDSV1 SAVING "         STORAGE" ON UNIT  52 AT TIME STEP 10, STRESS PERIOD   1
 UBDSV2 SAVING "   CONSTANT HEAD" ON UNIT  52 AT TIME STEP 10, STRESS PERIOD   1
 UBDSV1 SAVING "FLOW RIGHT FACE " ON UNIT  52 AT TIME STEP 10, STRESS PERIOD   1
 UBDSV1 SAVING "FLOW FRONT FACE " ON UNIT  52 AT TIME STEP 10, STRESS PERIOD   1
 UBUDSV SAVING "           GW ET" ON UNIT 52 AT TIME STEP 10, STRESS PERIOD    1
 UBUDSV SAVING "    UZF RECHARGE" ON UNIT 52 AT TIME STEP 10, STRESS PERIOD    1
 UBUDSV SAVING " SURFACE LEAKAGE" ON UNIT 52 AT TIME STEP 10, STRESS PERIOD    1
 UBUDSV SAVING "       HORT+DUNN" ON UNIT 52 AT TIME STEP 10, STRESS PERIOD    1
 UBUDSV SAVING "  STORAGE CHANGE" ON UNIT 52 AT TIME STEP 10, STRESS PERIOD    1
 UBDSV4 SAVING "           AG WE" ON UNIT  52 AT TIME STEP 10, STRESS PERIOD   1

 HEAD WILL BE SAVED ON UNIT   51 AT END OF TIME STEP   10, STRESS PERIOD    1
 
 SOLVING FOR HEAD 

    ------------------------------------------------
       NWT REQUIRED            1 OUTER ITERATIONS 
       AND A TOTAL OF          2 INNER ITERATIONS.
    ------------------------------------------------

 OUTPUT CONTROL FOR STRESS PERIOD    1   TIME STEP   11
    SAVE HEAD FOR ALL LAYERS
    SAVE BUDGET
 UBDSV1 SAVING "         STORAGE" ON UNIT  52 AT TIME STEP 11, STRESS PERIOD   1
 UBDSV2 SAVING "   CONSTANT HEAD" ON UNIT  52 AT TIME STEP 11, STRESS PERIOD   1
 UBDSV1 SAVING "FLOW RIGHT FACE " ON UNIT  52 AT TIME STEP 11, STRESS PERIOD   1
 UBDSV1 SAVING "FLOW FRONT FACE " ON UNIT  52 AT TIME STEP 11, STRESS PERIOD   1
 UBUDSV SAVING "           GW ET" ON UNIT 52 AT TIME STEP 11, STRESS PERIOD    1
 UBUDSV SAVING "    UZF RECHARGE" ON UNIT 52 AT TIME STEP 11, STRESS PERIOD    1
 UBUDSV SAVING " SURFACE LEAKAGE" ON UNIT 52 AT TIME STEP 11, STRESS PERIOD    1
 UBUDSV SAVING "       HORT+DUNN" ON UNIT 52 AT TIME STEP 11, STRESS PERIOD    1
 UBUDSV SAVING "  STORAGE CHANGE" ON UNIT 52 AT TIME STEP 11, STRESS PERIOD    1
 UBDSV4 SAVING "           AG WE" ON UNIT  52 AT TIME STEP 11, STRESS PERIOD   1

 HEAD WILL BE SAVED ON UNIT   51 AT END OF TIME STEP   11, STRESS PERIOD    1
 
 SOLVING FOR HEAD 

    ------------------------------------------------
       NWT REQUIRED            1 OUTER ITERATIONS 
       AND A TOTAL OF          2 INNER ITERATIONS.
    ------------------------------------------------

 OUTPUT CONTROL FOR STRESS PERIOD    1   TIME STEP   12
    SAVE HEAD FOR ALL LAYERS
    SAVE BUDGET
 UBDSV1 SAVING "         STORAGE" ON UNIT  52 AT TIME STEP 12, STRESS PERIOD   1
 UBDSV2 SAVING "   CONSTANT HEAD" ON UNIT  52 AT TIME STEP 12, STRESS PERIOD   1
 UBDSV1 SAVING "FLOW RIGHT FACE " ON UNIT  52 AT TIME STEP 12, STRESS PERIOD   1
 UBDSV1 SAVING "FLOW FRONT FACE " ON UNIT  52 AT TIME STEP 12, STRESS PERIOD   1
 UBUDSV SAVING "           GW ET" ON UNIT 52 AT TIME STEP 12, STRESS PERIOD    1
 UBUDSV SAVING "    UZF RECHARGE" ON UNIT 52 AT TIME STEP 12, STRESS PERIOD    1
 UBUDSV SAVING " SURFACE LEAKAGE" ON UNIT 52 AT TIME STEP 12, STRESS PERIOD    1
 UBUDSV SAVING "       HORT+DUNN" ON UNIT 52 AT TIME STEP 12, STRESS PERIOD    1
 UBUDSV SAVING "  STORAGE CHANGE" ON UNIT 52 AT TIME STEP 12, STRESS PERIOD    1
 UBDSV4 SAVING "           AG WE" ON UNIT  52 AT TIME STEP 12, STRESS PERIOD   1

 HEAD WILL BE SAVED ON UNIT   51 AT END OF TIME STEP   12, STRESS PERIOD    1
 
 SOLVING FOR HEAD 

    ------------------------------------------------
       NWT REQUIRED            1 OUTER ITERATIONS 
       AND A TOTAL OF          2 INNER ITERATIONS.
    ------------------------------------------------

 OUTPUT CONTROL FOR STRESS PERIOD    1   TIME STEP   13
    SAVE HEAD FOR ALL LAYERS
    SAVE BUDGET
 UBDSV1 SAVING "         STORAGE" ON UNIT  52 AT TIME STEP 13, STRESS PERIOD   1
 UBDSV2 SAVING "   CONSTANT HEAD" ON UNIT  52 AT TIME STEP 13, STRESS PERIOD   1
 UBDSV1 SAVING "FLOW RIGHT FACE " ON UNIT  52 AT TIME STEP 13, STRESS PERIOD   1
 UBDSV1 SAVING "FLOW FRONT FACE " ON UNIT  52 AT TIME STEP 13, STRESS PERIOD   1
 UBUDSV SAVING "           GW ET" ON UNIT 52 AT TIME STEP 13, STRESS PERIOD    1
 UBUDSV SAVING "    UZF RECHARGE" ON UNIT 52 AT TIME STEP 13, STRESS PERIOD    1
 UBUDSV SAVING " SURFACE LEAKAGE" ON UNIT 52 AT TIME STEP 13, STRESS PERIOD    1
 UBUDSV SAVING "       HORT+DUNN" ON UNIT 52 AT TIME STEP 13, STRESS PERIOD    1
 UBUDSV SAVING "  STORAGE CHANGE" ON UNIT 52 AT TIME STEP 13, STRESS PERIOD    1
 UBDSV4 SAVING "           AG WE" ON UNIT  52 AT TIME STEP 13, STRESS PERIOD   1

 HEAD WILL BE SAVED ON UNIT   51 AT END OF TIME STEP   13, STRESS PERIOD    1
 
 SOLVING FOR HEAD 

    ------------------------------------------------
       NWT REQUIRED            1 OUTER ITERATIONS 
       AND A TOTAL OF          2 INNER ITERATIONS.
    ------------------------------------------------

 OUTPUT CONTROL FOR STRESS PERIOD    1   TIME STEP   14
    SAVE HEAD FOR ALL LAYERS
    SAVE BUDGET
 UBDSV1 SAVING "         STORAGE" ON UNIT  52 AT TIME STEP 14, STRESS PERIOD   1
 UBDSV2 SAVING "   CONSTANT HEAD" ON UNIT  52 AT TIME STEP 14, STRESS PERIOD   1
 UBDSV1 SAVING "FLOW RIGHT FACE " ON UNIT  52 AT TIME STEP 14, STRESS PERIOD   1
 UBDSV1 SAVING "FLOW FRONT FACE " ON UNIT  52 AT TIME STEP 14, STRESS PERIOD   1
 UBUDSV SAVING "           GW ET" ON UNIT 52 AT TIME STEP 14, STRESS PERIOD    1
 UBUDSV SAVING "    UZF RECHARGE" ON UNIT 52 AT TIME STEP 14, STRESS PERIOD    1
 UBUDSV SAVING " SURFACE LEAKAGE" ON UNIT 52 AT TIME STEP 14, STRESS PERIOD    1
 UBUDSV SAVING "       HORT+DUNN" ON UNIT 52 AT TIME STEP 14, STRESS PERIOD    1
 UBUDSV SAVING "  STORAGE CHANGE" ON UNIT 52 AT TIME STEP 14, STRESS PERIOD    1
 UBDSV4 SAVING "           AG WE" ON UNIT  52 AT TIME STEP 14, STRESS PERIOD   1

 HEAD WILL BE SAVED ON UNIT   51 AT END OF TIME STEP   14, STRESS PERIOD    1
 
 SOLVING FOR HEAD 

    ------------------------------------------------
       NWT REQUIRED            1 OUTER ITERATIONS 
       AND A TOTAL OF          2 INNER ITERATIONS.
    ------------------------------------------------

 OUTPUT CONTROL FOR STRESS PERIOD    1   TIME STEP   15
    SAVE HEAD FOR ALL LAYERS
    SAVE BUDGET
 UBDSV1 SAVING "         STORAGE" ON UNIT  52 AT TIME STEP 15, STRESS PERIOD   1
 UBDSV2 SAVING "   CONSTANT HEAD" ON UNIT  52 AT TIME STEP 15, STRESS PERIOD   1
 UBDSV1 SAVING "FLOW RIGHT FACE " ON UNIT  52 AT TIME STEP 15, STRESS PERIOD   1
 UBDSV1 SAVING "FLOW FRONT FACE " ON UNIT  52 AT TIME STEP 15, STRESS PERIOD   1
 UBUDSV SAVING "           GW ET" ON UNIT 52 AT TIME STEP 15, STRESS PERIOD    1
 UBUDSV SAVING "    UZF RECHARGE" ON UNIT 52 AT TIME STEP 15, STRESS PERIOD    1
 UBUDSV SAVING " SURFACE LEAKAGE" ON UNIT 52 AT TIME STEP 15, STRESS PERIOD    1
 UBUDSV SAVING "       HORT+DUNN" ON UNIT 52 AT TIME STEP 15, STRESS PERIOD    1
 UBUDSV SAVING "  STORAGE CHANGE" ON UNIT 52 AT TIME STEP 15, STRESS PERIOD    1
 UBDSV4 SAVING "           AG WE" ON UNIT  52 AT TIME STEP 15, STRESS PERIOD   1

 HEAD WILL BE SAVED ON UNIT   51 AT END OF TIME STEP   15, STRESS PERIOD    1
 
 SOLVING FOR HEAD 

    ------------------------------------------------
       NWT REQUIRED            1 OUTER ITERATIONS 
       AND A TOTAL OF          2 INNER ITERATIONS.
    ------------------------------------------------

 OUTPUT CONTROL FOR STRESS PERIOD    1   TIME STEP   16
    SAVE HEAD FOR ALL LAYERS
    SAVE BUDGET
 UBDSV1 SAVING "         STORAGE" ON UNIT  52 AT TIME STEP 16, STRESS PERIOD   1
 UBDSV2 SAVING "   CONSTANT HEAD" ON UNIT  52 AT TIME STEP 16, STRESS PERIOD   1
 UBDSV1 SAVING "FLOW RIGHT FACE " ON UNIT  52 AT TIME STEP 16, STRESS PERIOD   1
 UBDSV1 SAVING "FLOW FRONT FACE " ON UNIT  52 AT TIME STEP 16, STRESS PERIOD   1
 UBUDSV SAVING "           GW ET" ON UNIT 52 AT TIME STEP 16, STRESS PERIOD    1
 UBUDSV SAVING "    UZF RECHARGE" ON UNIT 52 AT TIME STEP 16, STRESS PERIOD    1
 UBUDSV SAVING " SURFACE LEAKAGE" ON UNIT 52 AT TIME STEP 16, STRESS PERIOD    1
 UBUDSV SAVING "       HORT+DUNN" ON UNIT 52 AT TIME STEP 16, STRESS PERIOD    1
 UBUDSV SAVING "  STORAGE CHANGE" ON UNIT 52 AT TIME STEP 16, STRESS PERIOD    1
 UBDSV4 SAVING "           AG WE" ON UNIT  52 AT TIME STEP 16, STRESS PERIOD   1

 HEAD WILL BE SAVED ON UNIT   51 AT END OF TIME STEP   16, STRESS PERIOD    1
 
 SOLVING FOR HEAD 

    ------------------------------------------------
       NWT REQUIRED            1 OUTER ITERATIONS 
       AND A TOTAL OF          2 INNER ITERATIONS.
    ------------------------------------------------

 OUTPUT CONTROL FOR STRESS PERIOD    1   TIME STEP   17
    SAVE HEAD FOR ALL LAYERS
    SAVE BUDGET
 UBDSV1 SAVING "         STORAGE" ON UNIT  52 AT TIME STEP 17, STRESS PERIOD   1
 UBDSV2 SAVING "   CONSTANT HEAD" ON UNIT  52 AT TIME STEP 17, STRESS PERIOD   1
 UBDSV1 SAVING "FLOW RIGHT FACE " ON UNIT  52 AT TIME STEP 17, STRESS PERIOD   1
 UBDSV1 SAVING "FLOW FRONT FACE " ON UNIT  52 AT TIME STEP 17, STRESS PERIOD   1
 UBUDSV SAVING "           GW ET" ON UNIT 52 AT TIME STEP 17, STRESS PERIOD    1
 UBUDSV SAVING "    UZF RECHARGE" ON UNIT 52 AT TIME STEP 17, STRESS PERIOD    1
 UBUDSV SAVING " SURFACE LEAKAGE" ON UNIT 52 AT TIME STEP 17, STRESS PERIOD    1
 UBUDSV SAVING "       HORT+DUNN" ON UNIT 52 AT TIME STEP 17, STRESS PERIOD    1
 UBUDSV SAVING "  STORAGE CHANGE" ON UNIT 52 AT TIME STEP 17, STRESS PERIOD    1
 UBDSV4 SAVING "           AG WE" ON UNIT  52 AT TIME STEP 17, STRESS PERIOD   1

 HEAD WILL BE SAVED ON UNIT   51 AT END OF TIME STEP   17, STRESS PERIOD    1
 
 SOLVING FOR HEAD 

    ------------------------------------------------
       NWT REQUIRED            1 OUTER ITERATIONS 
       AND A TOTAL OF          2 INNER ITERATIONS.
    ------------------------------------------------

 OUTPUT CONTROL FOR STRESS PERIOD    1   TIME STEP   18
    SAVE HEAD FOR ALL LAYERS
    SAVE BUDGET
 UBDSV1 SAVING "         STORAGE" ON UNIT  52 AT TIME STEP 18, STRESS PERIOD   1
 UBDSV2 SAVING "   CONSTANT HEAD" ON UNIT  52 AT TIME STEP 18, STRESS PERIOD   1
 UBDSV1 SAVING "FLOW RIGHT FACE " ON UNIT  52 AT TIME STEP 18, STRESS PERIOD   1
 UBDSV1 SAVING "FLOW FRONT FACE " ON UNIT  52 AT TIME STEP 18, STRESS PERIOD   1
 UBUDSV SAVING "           GW ET" ON UNIT 52 AT TIME STEP 18, STRESS PERIOD    1
 UBUDSV SAVING "    UZF RECHARGE" ON UNIT 52 AT TIME STEP 18, STRESS PERIOD    1
 UBUDSV SAVING " SURFACE LEAKAGE" ON UNIT 52 AT TIME STEP 18, STRESS PERIOD    1
 UBUDSV SAVING "       HORT+DUNN" ON UNIT 52 AT TIME STEP 18, STRESS PERIOD    1
 UBUDSV SAVING "  STORAGE CHANGE" ON UNIT 52 AT TIME STEP 18, STRESS PERIOD    1
 UBDSV4 SAVING "           AG WE" ON UNIT  52 AT TIME STEP 18, STRESS PERIOD   1

 HEAD WILL BE SAVED ON UNIT   51 AT END OF TIME STEP   18, STRESS PERIOD    1
 
 SOLVING FOR HEAD 

    ------------------------------------------------
       NWT REQUIRED            1 OUTER ITERATIONS 
       AND A TOTAL OF          2 INNER ITERATIONS.
    ------------------------------------------------

 OUTPUT CONTROL FOR STRESS PERIOD    1   TIME STEP   19
    SAVE HEAD FOR ALL LAYERS
    SAVE BUDGET
 UBDSV1 SAVING "         STORAGE" ON UNIT  52 AT TIME STEP 19, STRESS PERIOD   1
 UBDSV2 SAVING "   CONSTANT HEAD" ON UNIT  52 AT TIME STEP 19, STRESS PERIOD   1
 UBDSV1 SAVING "FLOW RIGHT FACE " ON UNIT  52 AT TIME STEP 19, STRESS PERIOD   1
 UBDSV1 SAVING "FLOW FRONT FACE " ON UNIT  52 AT TIME STEP 19, STRESS PERIOD   1
 UBUDSV SAVING "           GW ET" ON UNIT 52 AT TIME STEP 19, STRESS PERIOD    1
 UBUDSV SAVING "    UZF RECHARGE" ON UNIT 52 AT TIME STEP 19, STRESS PERIOD    1
 UBUDSV SAVING " SURFACE LEAKAGE" ON UNIT 52 AT TIME STEP 19, STRESS PERIOD    1
 UBUDSV SAVING "       HORT+DUNN" ON UNIT 52 AT TIME STEP 19, STRESS PERIOD    1
 UBUDSV SAVING "  STORAGE CHANGE" ON UNIT 52 AT TIME STEP 19, STRESS PERIOD    1
 UBDSV4 SAVING "           AG WE" ON UNIT  52 AT TIME STEP 19, STRESS PERIOD   1

 HEAD WILL BE SAVED ON UNIT   51 AT END OF TIME STEP   19, STRESS PERIOD    1
 
 SOLVING FOR HEAD 

    ------------------------------------------------
       NWT REQUIRED            1 OUTER ITERATIONS 
       AND A TOTAL OF          2 INNER ITERATIONS.
    ------------------------------------------------

 OUTPUT CONTROL FOR STRESS PERIOD    1   TIME STEP   20
    SAVE HEAD FOR ALL LAYERS
    SAVE BUDGET
 UBDSV1 SAVING "         STORAGE" ON UNIT  52 AT TIME STEP 20, STRESS PERIOD   1
 UBDSV2 SAVING "   CONSTANT HEAD" ON UNIT  52 AT TIME STEP 20, STRESS PERIOD   1
 UBDSV1 SAVING "FLOW RIGHT FACE " ON UNIT  52 AT TIME STEP 20, STRESS PERIOD   1
 UBDSV1 SAVING "FLOW FRONT FACE " ON UNIT  52 AT TIME STEP 20, STRESS PERIOD   1
 UBUDSV SAVING "           GW ET" ON UNIT 52 AT TIME STEP 20, STRESS PERIOD    1
 UBUDSV SAVING "    UZF RECHARGE" ON UNIT 52 AT TIME STEP 20, STRESS PERIOD    1
 UBUDSV SAVING " SURFACE LEAKAGE" ON UNIT 52 AT TIME STEP 20, STRESS PERIOD    1
 UBUDSV SAVING "       HORT+DUNN" ON UNIT 52 AT TIME STEP 20, STRESS PERIOD    1
 UBUDSV SAVING "  STORAGE CHANGE" ON UNIT 52 AT TIME STEP 20, STRESS PERIOD    1
 UBDSV4 SAVING "           AG WE" ON UNIT  52 AT TIME STEP 20, STRESS PERIOD   1

 HEAD WILL BE SAVED ON UNIT   51 AT END OF TIME STEP   20, STRESS PERIOD    1
 
 SOLVING FOR HEAD 

    ------------------------------------------------
       NWT REQUIRED            1 OUTER ITERATIONS 
       AND A TOTAL OF          2 INNER ITERATIONS.
    ------------------------------------------------

 OUTPUT CONTROL FOR STRESS PERIOD    1   TIME STEP   21
    SAVE HEAD FOR ALL LAYERS
    SAVE BUDGET
 UBDSV1 SAVING "         STORAGE" ON UNIT  52 AT TIME STEP 21, STRESS PERIOD   1
 UBDSV2 SAVING "   CONSTANT HEAD" ON UNIT  52 AT TIME STEP 21, STRESS PERIOD   1
 UBDSV1 SAVING "FLOW RIGHT FACE " ON UNIT  52 AT TIME STEP 21, STRESS PERIOD   1
 UBDSV1 SAVING "FLOW FRONT FACE " ON UNIT  52 AT TIME STEP 21, STRESS PERIOD   1
 UBUDSV SAVING "           GW ET" ON UNIT 52 AT TIME STEP 21, STRESS PERIOD    1
 UBUDSV SAVING "    UZF RECHARGE" ON UNIT 52 AT TIME STEP 21, STRESS PERIOD    1
 UBUDSV SAVING " SURFACE LEAKAGE" ON UNIT 52 AT TIME STEP 21, STRESS PERIOD    1
 UBUDSV SAVING "       HORT+DUNN" ON UNIT 52 AT TIME STEP 21, STRESS PERIOD    1
 UBUDSV SAVING "  STORAGE CHANGE" ON UNIT 52 AT TIME STEP 21, STRESS PERIOD    1
 UBDSV4 SAVING "           AG WE" ON UNIT  52 AT TIME STEP 21, STRESS PERIOD   1

 HEAD WILL BE SAVED ON UNIT   51 AT END OF TIME STEP   21, STRESS PERIOD    1
 
 SOLVING FOR HEAD 

    ------------------------------------------------
       NWT REQUIRED            1 OUTER ITERATIONS 
       AND A TOTAL OF          2 INNER ITERATIONS.
    ------------------------------------------------

 OUTPUT CONTROL FOR STRESS PERIOD    1   TIME STEP   22
    SAVE HEAD FOR ALL LAYERS
    SAVE BUDGET
 UBDSV1 SAVING "         STORAGE" ON UNIT  52 AT TIME STEP 22, STRESS PERIOD   1
 UBDSV2 SAVING "   CONSTANT HEAD" ON UNIT  52 AT TIME STEP 22, STRESS PERIOD   1
 UBDSV1 SAVING "FLOW RIGHT FACE " ON UNIT  52 AT TIME STEP 22, STRESS PERIOD   1
 UBDSV1 SAVING "FLOW FRONT FACE " ON UNIT  52 AT TIME STEP 22, STRESS PERIOD   1
 UBUDSV SAVING "           GW ET" ON UNIT 52 AT TIME STEP 22, STRESS PERIOD    1
 UBUDSV SAVING "    UZF RECHARGE" ON UNIT 52 AT TIME STEP 22, STRESS PERIOD    1
 UBUDSV SAVING " SURFACE LEAKAGE" ON UNIT 52 AT TIME STEP 22, STRESS PERIOD    1
 UBUDSV SAVING "       HORT+DUNN" ON UNIT 52 AT TIME STEP 22, STRESS PERIOD    1
 UBUDSV SAVING "  STORAGE CHANGE" ON UNIT 52 AT TIME STEP 22, STRESS PERIOD    1
 UBDSV4 SAVING "           AG WE" ON UNIT  52 AT TIME STEP 22, STRESS PERIOD   1

 HEAD WILL BE SAVED ON UNIT   51 AT END OF TIME STEP   22, STRESS PERIOD    1
 
 SOLVING FOR HEAD 

    ------------------------------------------------
       NWT REQUIRED            1 OUTER ITERATIONS 
       AND A TOTAL OF          2 INNER ITERATIONS.
    ------------------------------------------------

 OUTPUT CONTROL FOR STRESS PERIOD    1   TIME STEP   23
    SAVE HEAD FOR ALL LAYERS
    SAVE BUDGET
 UBDSV1 SAVING "         STORAGE" ON UNIT  52 AT TIME STEP 23, STRESS PERIOD   1
 UBDSV2 SAVING "   CONSTANT HEAD" ON UNIT  52 AT TIME STEP 23, STRESS PERIOD   1
 UBDSV1 SAVING "FLOW RIGHT FACE " ON UNIT  52 AT TIME STEP 23, STRESS PERIOD   1
 UBDSV1 SAVING "FLOW FRONT FACE " ON UNIT  52 AT TIME STEP 23, STRESS PERIOD   1
 UBUDSV SAVING "           GW ET" ON UNIT 52 AT TIME STEP 23, STRESS PERIOD    1
 UBUDSV SAVING "    UZF RECHARGE" ON UNIT 52 AT TIME STEP 23, STRESS PERIOD    1
 UBUDSV SAVING " SURFACE LEAKAGE" ON UNIT 52 AT TIME STEP 23, STRESS PERIOD    1
 UBUDSV SAVING "       HORT+DUNN" ON UNIT 52 AT TIME STEP 23, STRESS PERIOD    1
 UBUDSV SAVING "  STORAGE CHANGE" ON UNIT 52 AT TIME STEP 23, STRESS PERIOD    1
 UBDSV4 SAVING "           AG WE" ON UNIT  52 AT TIME STEP 23, STRESS PERIOD   1

 HEAD WILL BE SAVED ON UNIT   51 AT END OF TIME STEP   23, STRESS PERIOD    1
 
 SOLVING FOR HEAD 

    ------------------------------------------------
       NWT REQUIRED            1 OUTER ITERATIONS 
       AND A TOTAL OF          2 INNER ITERATIONS.
    ------------------------------------------------

 OUTPUT CONTROL FOR STRESS PERIOD    1   TIME STEP   24
    SAVE HEAD FOR ALL LAYERS
    SAVE BUDGET
 UBDSV1 SAVING "         STORAGE" ON UNIT  52 AT TIME STEP 24, STRESS PERIOD   1
 UBDSV2 SAVING "   CONSTANT HEAD" ON UNIT  52 AT TIME STEP 24, STRESS PERIOD   1
 UBDSV1 SAVING "FLOW RIGHT FACE " ON UNIT  52 AT TIME STEP 24, STRESS PERIOD   1
 UBDSV1 SAVING "FLOW FRONT FACE " ON UNIT  52 AT TIME STEP 24, STRESS PERIOD   1
 UBUDSV SAVING "           GW ET" ON UNIT 52 AT TIME STEP 24, STRESS PERIOD    1
 UBUDSV SAVING "    UZF RECHARGE" ON UNIT 52 AT TIME STEP 24, STRESS PERIOD    1
 UBUDSV SAVING " SURFACE LEAKAGE" ON UNIT 52 AT TIME STEP 24, STRESS PERIOD    1
 UBUDSV SAVING "       HORT+DUNN" ON UNIT 52 AT TIME STEP 24, STRESS PERIOD    1
 UBUDSV SAVING "  STORAGE CHANGE" ON UNIT 52 AT TIME STEP 24, STRESS PERIOD    1
 UBDSV4 SAVING "           AG WE" ON UNIT  52 AT TIME STEP 24, STRESS PERIOD   1

 HEAD WILL BE SAVED ON UNIT   51 AT END OF TIME STEP   24, STRESS PERIOD    1
 
 SOLVING FOR HEAD 

    ------------------------------------------------
       NWT REQUIRED            1 OUTER ITERATIONS 
       AND A TOTAL OF          2 INNER ITERATIONS.
    ------------------------------------------------

 OUTPUT CONTROL FOR STRESS PERIOD    1   TIME STEP   25
    SAVE HEAD FOR ALL LAYERS
    SAVE BUDGET
 UBDSV1 SAVING "         STORAGE" ON UNIT  52 AT TIME STEP 25, STRESS PERIOD   1
 UBDSV2 SAVING "   CONSTANT HEAD" ON UNIT  52 AT TIME STEP 25, STRESS PERIOD   1
 UBDSV1 SAVING "FLOW RIGHT FACE " ON UNIT  52 AT TIME STEP 25, STRESS PERIOD   1
 UBDSV1 SAVING "FLOW FRONT FACE " ON UNIT  52 AT TIME STEP 25, STRESS PERIOD   1
 UBUDSV SAVING "           GW ET" ON UNIT 52 AT TIME STEP 25, STRESS PERIOD    1
 UBUDSV SAVING "    UZF RECHARGE" ON UNIT 52 AT TIME STEP 25, STRESS PERIOD    1
 UBUDSV SAVING " SURFACE LEAKAGE" ON UNIT 52 AT TIME STEP 25, STRESS PERIOD    1
 UBUDSV SAVING "       HORT+DUNN" ON UNIT 52 AT TIME STEP 25, STRESS PERIOD    1
 UBUDSV SAVING "  STORAGE CHANGE" ON UNIT 52 AT TIME STEP 25, STRESS PERIOD    1
 UBDSV4 SAVING "           AG WE" ON UNIT  52 AT TIME STEP 25, STRESS PERIOD   1

 HEAD WILL BE SAVED ON UNIT   51 AT END OF TIME STEP   25, STRESS PERIOD    1
 
 SOLVING FOR HEAD 

    ------------------------------------------------
       NWT REQUIRED            1 OUTER ITERATIONS 
       AND A TOTAL OF          2 INNER ITERATIONS.
    ------------------------------------------------

 OUTPUT CONTROL FOR STRESS PERIOD    1   TIME STEP   26
    SAVE HEAD FOR ALL LAYERS
    SAVE BUDGET
 UBDSV1 SAVING "         STORAGE" ON UNIT  52 AT TIME STEP 26, STRESS PERIOD   1
 UBDSV2 SAVING "   CONSTANT HEAD" ON UNIT  52 AT TIME STEP 26, STRESS PERIOD   1
 UBDSV1 SAVING "FLOW RIGHT FACE " ON UNIT  52 AT TIME STEP 26, STRESS PERIOD   1
 UBDSV1 SAVING "FLOW FRONT FACE " ON UNIT  52 AT TIME STEP 26, STRESS PERIOD   1
 UBUDSV SAVING "           GW ET" ON UNIT 52 AT TIME STEP 26, STRESS PERIOD    1
 UBUDSV SAVING "    UZF RECHARGE" ON UNIT 52 AT TIME STEP 26, STRESS PERIOD    1
 UBUDSV SAVING " SURFACE LEAKAGE" ON UNIT 52 AT TIME STEP 26, STRESS PERIOD    1
 UBUDSV SAVING "       HORT+DUNN" ON UNIT 52 AT TIME STEP 26, STRESS PERIOD    1
 UBUDSV SAVING "  STORAGE CHANGE" ON UNIT 52 AT TIME STEP 26, STRESS PERIOD    1
 UBDSV4 SAVING "           AG WE" ON UNIT  52 AT TIME STEP 26, STRESS PERIOD   1

 HEAD WILL BE SAVED ON UNIT   51 AT END OF TIME STEP   26, STRESS PERIOD    1
 
 SOLVING FOR HEAD 

    ------------------------------------------------
       NWT REQUIRED            1 OUTER ITERATIONS 
       AND A TOTAL OF          2 INNER ITERATIONS.
    ------------------------------------------------

 OUTPUT CONTROL FOR STRESS PERIOD    1   TIME STEP   27
    SAVE HEAD FOR ALL LAYERS
    SAVE BUDGET
 UBDSV1 SAVING "         STORAGE" ON UNIT  52 AT TIME STEP 27, STRESS PERIOD   1
 UBDSV2 SAVING "   CONSTANT HEAD" ON UNIT  52 AT TIME STEP 27, STRESS PERIOD   1
 UBDSV1 SAVING "FLOW RIGHT FACE " ON UNIT  52 AT TIME STEP 27, STRESS PERIOD   1
 UBDSV1 SAVING "FLOW FRONT FACE " ON UNIT  52 AT TIME STEP 27, STRESS PERIOD   1
 UBUDSV SAVING "           GW ET" ON UNIT 52 AT TIME STEP 27, STRESS PERIOD    1
 UBUDSV SAVING "    UZF RECHARGE" ON UNIT 52 AT TIME STEP 27, STRESS PERIOD    1
 UBUDSV SAVING " SURFACE LEAKAGE" ON UNIT 52 AT TIME STEP 27, STRESS PERIOD    1
 UBUDSV SAVING "       HORT+DUNN" ON UNIT 52 AT TIME STEP 27, STRESS PERIOD    1
 UBUDSV SAVING "  STORAGE CHANGE" ON UNIT 52 AT TIME STEP 27, STRESS PERIOD    1
 UBDSV4 SAVING "           AG WE" ON UNIT  52 AT TIME STEP 27, STRESS PERIOD   1

 HEAD WILL BE SAVED ON UNIT   51 AT END OF TIME STEP   27, STRESS PERIOD    1
 
 SOLVING FOR HEAD 

    ------------------------------------------------
       NWT REQUIRED            1 OUTER ITERATIONS 
       AND A TOTAL OF          2 INNER ITERATIONS.
    ------------------------------------------------

 OUTPUT CONTROL FOR STRESS PERIOD    1   TIME STEP   28
    SAVE HEAD FOR ALL LAYERS
    SAVE BUDGET
 UBDSV1 SAVING "         STORAGE" ON UNIT  52 AT TIME STEP 28, STRESS PERIOD   1
 UBDSV2 SAVING "   CONSTANT HEAD" ON UNIT  52 AT TIME STEP 28, STRESS PERIOD   1
 UBDSV1 SAVING "FLOW RIGHT FACE " ON UNIT  52 AT TIME STEP 28, STRESS PERIOD   1
 UBDSV1 SAVING "FLOW FRONT FACE " ON UNIT  52 AT TIME STEP 28, STRESS PERIOD   1
 UBUDSV SAVING "           GW ET" ON UNIT 52 AT TIME STEP 28, STRESS PERIOD    1
 UBUDSV SAVING "    UZF RECHARGE" ON UNIT 52 AT TIME STEP 28, STRESS PERIOD    1
 UBUDSV SAVING " SURFACE LEAKAGE" ON UNIT 52 AT TIME STEP 28, STRESS PERIOD    1
 UBUDSV SAVING "       HORT+DUNN" ON UNIT 52 AT TIME STEP 28, STRESS PERIOD    1
 UBUDSV SAVING "  STORAGE CHANGE" ON UNIT 52 AT TIME STEP 28, STRESS PERIOD    1
 UBDSV4 SAVING "           AG WE" ON UNIT  52 AT TIME STEP 28, STRESS PERIOD   1

 HEAD WILL BE SAVED ON UNIT   51 AT END OF TIME STEP   28, STRESS PERIOD    1
 
 SOLVING FOR HEAD 

    ------------------------------------------------
       NWT REQUIRED            1 OUTER ITERATIONS 
       AND A TOTAL OF          2 INNER ITERATIONS.
    ------------------------------------------------

 OUTPUT CONTROL FOR STRESS PERIOD    1   TIME STEP   29
    SAVE HEAD FOR ALL LAYERS
    SAVE BUDGET
 UBDSV1 SAVING "         STORAGE" ON UNIT  52 AT TIME STEP 29, STRESS PERIOD   1
 UBDSV2 SAVING "   CONSTANT HEAD" ON UNIT  52 AT TIME STEP 29, STRESS PERIOD   1
 UBDSV1 SAVING "FLOW RIGHT FACE " ON UNIT  52 AT TIME STEP 29, STRESS PERIOD   1
 UBDSV1 SAVING "FLOW FRONT FACE " ON UNIT  52 AT TIME STEP 29, STRESS PERIOD   1
 UBUDSV SAVING "           GW ET" ON UNIT 52 AT TIME STEP 29, STRESS PERIOD    1
 UBUDSV SAVING "    UZF RECHARGE" ON UNIT 52 AT TIME STEP 29, STRESS PERIOD    1
 UBUDSV SAVING " SURFACE LEAKAGE" ON UNIT 52 AT TIME STEP 29, STRESS PERIOD    1
 UBUDSV SAVING "       HORT+DUNN" ON UNIT 52 AT TIME STEP 29, STRESS PERIOD    1
 UBUDSV SAVING "  STORAGE CHANGE" ON UNIT 52 AT TIME STEP 29, STRESS PERIOD    1
 UBDSV4 SAVING "           AG WE" ON UNIT  52 AT TIME STEP 29, STRESS PERIOD   1

 HEAD WILL BE SAVED ON UNIT   51 AT END OF TIME STEP   29, STRESS PERIOD    1
 
 SOLVING FOR HEAD 

    ------------------------------------------------
       NWT REQUIRED            1 OUTER ITERATIONS 
       AND A TOTAL OF          2 INNER ITERATIONS.
    ------------------------------------------------

 OUTPUT CONTROL FOR STRESS PERIOD    1   TIME STEP   30
    SAVE HEAD FOR ALL LAYERS
    SAVE BUDGET
 UBDSV1 SAVING "         STORAGE" ON UNIT  52 AT TIME STEP 30, STRESS PERIOD   1
 UBDSV2 SAVING "   CONSTANT HEAD" ON UNIT  52 AT TIME STEP 30, STRESS PERIOD   1
 UBDSV1 SAVING "FLOW RIGHT FACE " ON UNIT  52 AT TIME STEP 30, STRESS PERIOD   1
 UBDSV1 SAVING "FLOW FRONT FACE " ON UNIT  52 AT TIME STEP 30, STRESS PERIOD   1
 UBUDSV SAVING "           GW ET" ON UNIT 52 AT TIME STEP 30, STRESS PERIOD    1
 UBUDSV SAVING "    UZF RECHARGE" ON UNIT 52 AT TIME STEP 30, STRESS PERIOD    1
 UBUDSV SAVING " SURFACE LEAKAGE" ON UNIT 52 AT TIME STEP 30, STRESS PERIOD    1
 UBUDSV SAVING "       HORT+DUNN" ON UNIT 52 AT TIME STEP 30, STRESS PERIOD    1
 UBUDSV SAVING "  STORAGE CHANGE" ON UNIT 52 AT TIME STEP 30, STRESS PERIOD    1
 UBDSV4 SAVING "           AG WE" ON UNIT  52 AT TIME STEP 30, STRESS PERIOD   1

 HEAD WILL BE SAVED ON UNIT   51 AT END OF TIME STEP   30, STRESS PERIOD    1
 
 SOLVING FOR HEAD 

    ------------------------------------------------
       NWT REQUIRED            1 OUTER ITERATIONS 
       AND A TOTAL OF          2 INNER ITERATIONS.
    ------------------------------------------------

 OUTPUT CONTROL FOR STRESS PERIOD    1   TIME STEP   31
    SAVE HEAD FOR ALL LAYERS
    SAVE BUDGET
 UBDSV1 SAVING "         STORAGE" ON UNIT  52 AT TIME STEP 31, STRESS PERIOD   1
 UBDSV2 SAVING "   CONSTANT HEAD" ON UNIT  52 AT TIME STEP 31, STRESS PERIOD   1
 UBDSV1 SAVING "FLOW RIGHT FACE " ON UNIT  52 AT TIME STEP 31, STRESS PERIOD   1
 UBDSV1 SAVING "FLOW FRONT FACE " ON UNIT  52 AT TIME STEP 31, STRESS PERIOD   1
 UBUDSV SAVING "           GW ET" ON UNIT 52 AT TIME STEP 31, STRESS PERIOD    1
 UBUDSV SAVING "    UZF RECHARGE" ON UNIT 52 AT TIME STEP 31, STRESS PERIOD    1
 UBUDSV SAVING " SURFACE LEAKAGE" ON UNIT 52 AT TIME STEP 31, STRESS PERIOD    1
 UBUDSV SAVING "       HORT+DUNN" ON UNIT 52 AT TIME STEP 31, STRESS PERIOD    1
 UBUDSV SAVING "  STORAGE CHANGE" ON UNIT 52 AT TIME STEP 31, STRESS PERIOD    1


UNSATURATED ZONE PACKAGE VOLUMETRIC BUDGET FOR  TIME STEP    31 STRESS PERIOD    1
  ------------------------------------------------------------------------------



     CUMULATIVE VOLUMES      L**3       RATES FOR THIS TIME STEP      L**3/T
     ------------------                 ------------------------

           IN:                                      IN:
           ---                                      ---
        INFILTRATION =       34922.1603          INFILTRATION =        1126.5213

          OUT:                                     OUT:
          ----                                     ----
              UZF ET =       13147.5351                UZF ET =         424.1140
        UZF RECHARGE =        1320.3089          UZF RECHARGE =          42.5907

            IN - OUT =       20454.3163              IN - OUT =         659.8165

          STORAGE:                                 STORAGE:
          --------                                 --------
      STORAGE CHANGE =       20454.3173        STORAGE CHANGE =         659.8166

 PERCENT DISCREPANCY IS DIFFERENCE BETWEEN IN-OUT MINUS CHANGE IN STORAGE
 DIVIDED BY THE AVERAGE OF IN AND OUT TIMES 100

 PERCENT DISCREPANCY =           0.00     PERCENT DISCREPANCY =          -0.00






 UBDSV4 SAVING "           AG WE" ON UNIT  52 AT TIME STEP 31, STRESS PERIOD   1
1
  VOLUMETRIC BUDGET FOR AGRICULTURAL FIELDS AT TIME STEP   31, STRESS PERIOD   1
  ------------------------------------------------------------------------------

     CUMULATIVE VOLUMES      L**3       RATES FOR THIS TIME STEP      L**3/T
     ------------------                 ------------------------

           IN:                                      IN:
           ---                                      ---
               AG WELLS  =           0.0000                 AG WELLS  =           0.0000
      DIVERSION SEGMENTS =           0.0000        DIVERSION SEGMENTS =           0.0000
           GW IRRIGATION =           0.0000             GW IRRIGATION =           0.0000
           SW IRRIGATION =           0.0000             SW IRRIGATION =           0.0000
        SYSTEM LOSSES GW =           0.0000          SYSTEM LOSSES GW =           0.0000
        SYSTEM LOSSES SW =           0.0000          SYSTEM LOSSES SW =           0.0000

                TOTAL IN =           0.0000                  TOTAL IN =           0.0000

          OUT:                                     OUT:
          ----                                     ----
               AG WELLS  =           0.0000                 AG WELLS  =           0.0000
      DIVERSION SEGMENTS =           0.0000        DIVERSION SEGMENTS =           0.0000
           GW IRRIGATION =           0.0000             GW IRRIGATION =           0.0000
           SW IRRIGATION =           0.0000             SW IRRIGATION =           0.0000
        SYSTEM LOSSES GW =           0.0000          SYSTEM LOSSES GW =           0.0000
        SYSTEM LOSSES SW =           0.0000          SYSTEM LOSSES SW =           0.0000

               TOTAL OUT =           0.0000                 TOTAL OUT =           0.0000

                IN - OUT =           0.0000                  IN - OUT =           0.0000

     PERCENT DISCREPANCY =           0.00         PERCENT DISCREPANCY =           0.00




 HEAD WILL BE SAVED ON UNIT   51 AT END OF TIME STEP   31, STRESS PERIOD    1
1
  VOLUMETRIC BUDGET FOR ENTIRE MODEL AT END OF TIME STEP   31, STRESS PERIOD   1
  ------------------------------------------------------------------------------

     CUMULATIVE VOLUMES      L**3       RATES FOR THIS TIME STEP      L**3/T
     ------------------                 ------------------------

           IN:                                      IN:
           ---                                      ---
             STORAGE     =           0.0000               STORAGE     =           0.0000
       CONSTANT HEAD     =           0.0000         CONSTANT HEAD     =           0.0000
        UZF RECHARGE     =        1320.3086          UZF RECHARGE     =          42.5907
               GW ET     =           0.0000                 GW ET     =           0.0000
     SURFACE LEAKAGE     =           0.0000       SURFACE LEAKAGE     =           0.0000
           AG WELLS      =           0.0000             AG WELLS      =           0.0000

                TOTAL IN =        1320.3086                  TOTAL IN =          42.5907

          OUT:                                     OUT:
          ----                                     ----
             STORAGE     =        1192.1061               STORAGE     =          38.4553
       CONSTANT HEAD     =           0.0000         CONSTANT HEAD     =           0.0000
        UZF RECHARGE     =           0.0000          UZF RECHARGE     =           0.0000
               GW ET     =           0.0000                 GW ET     =           0.0000
     SURFACE LEAKAGE     =           0.0000       SURFACE LEAKAGE     =           0.0000
           AG WELLS      =           0.0000             AG WELLS      =           0.0000

               TOTAL OUT =        1192.1061                 TOTAL OUT =          38.4553

                IN - OUT =         128.2025                  IN - OUT =           4.1354

     PERCENT DISCREPANCY =          10.21         PERCENT DISCREPANCY =          10.21






         TIME SUMMARY AT END OF TIME STEP   31 IN STRESS PERIOD    1
                    SECONDS     MINUTES      HOURS       DAYS        YEARS
                    -----------------------------------------------------------
   TIME STEP LENGTH  86400.      1440.0      24.000      1.0000     2.73785E-03
 STRESS PERIOD TIME 2.67840E+06  44640.      744.00      31.000     8.48734E-02
         TOTAL TIME 2.67840E+06  44640.      744.00      31.000     8.48734E-02
1
1
                            STRESS PERIOD NO.    2, LENGTH =   28.00000    
                            -----------------------------------------------

                              NUMBER OF TIME STEPS =    28

                               MULTIPLIER FOR DELT =     1.000

                            INITIAL TIME STEP SIZE =   1.000000    



            AREAL INFILTRATION RATE
 READING ON UNIT   19 WITH FORMAT: (10E15.6)           



                            ET RATE
 READING ON UNIT   19 WITH FORMAT: (10E15.6)           



                ET EXTINCTION DEPTH
 READING ON UNIT   19 WITH FORMAT: (10E15.6)           



           EXTINCTION WATER CONTENT
 READING ON UNIT   19 WITH FORMAT: (10E15.6)           

 PROCESSING AG STRESS PERIOD DATA

 READING AG STRESS PERIOD DATA

 READING IRRIGATION WELL

 END PROCESSING AG STRESS PERIOD DATA OPTIONS
 
 SOLVING FOR HEAD 

    ------------------------------------------------
       NWT REQUIRED            1 OUTER ITERATIONS 
       AND A TOTAL OF          2 INNER ITERATIONS.
    ------------------------------------------------

 OUTPUT CONTROL FOR STRESS PERIOD    2   TIME STEP    1
    SAVE HEAD FOR ALL LAYERS
    SAVE BUDGET
 UBDSV1 SAVING "         STORAGE" ON UNIT  52 AT TIME STEP  1, STRESS PERIOD   2
 UBDSV2 SAVING "   CONSTANT HEAD" ON UNIT  52 AT TIME STEP  1, STRESS PERIOD   2
 UBDSV1 SAVING "FLOW RIGHT FACE " ON UNIT  52 AT TIME STEP  1, STRESS PERIOD   2
 UBDSV1 SAVING "FLOW FRONT FACE " ON UNIT  52 AT TIME STEP  1, STRESS PERIOD   2
 UBUDSV SAVING "           GW ET" ON UNIT 52 AT TIME STEP  1, STRESS PERIOD    2
 UBUDSV SAVING "    UZF RECHARGE" ON UNIT 52 AT TIME STEP  1, STRESS PERIOD    2
 UBUDSV SAVING " SURFACE LEAKAGE" ON UNIT 52 AT TIME STEP  1, STRESS PERIOD    2
 UBUDSV SAVING "       HORT+DUNN" ON UNIT 52 AT TIME STEP  1, STRESS PERIOD    2
 UBUDSV SAVING "  STORAGE CHANGE" ON UNIT 52 AT TIME STEP  1, STRESS PERIOD    2
 UBDSV4 SAVING "           AG WE" ON UNIT  52 AT TIME STEP  1, STRESS PERIOD   2

 HEAD WILL BE SAVED ON UNIT   51 AT END OF TIME STEP    1, STRESS PERIOD    2
 
 SOLVING FOR HEAD 

    ------------------------------------------------
       NWT REQUIRED            1 OUTER ITERATIONS 
       AND A TOTAL OF          2 INNER ITERATIONS.
    ------------------------------------------------

 OUTPUT CONTROL FOR STRESS PERIOD    2   TIME STEP    2
    SAVE HEAD FOR ALL LAYERS
    SAVE BUDGET
 UBDSV1 SAVING "         STORAGE" ON UNIT  52 AT TIME STEP  2, STRESS PERIOD   2
 UBDSV2 SAVING "   CONSTANT HEAD" ON UNIT  52 AT TIME STEP  2, STRESS PERIOD   2
 UBDSV1 SAVING "FLOW RIGHT FACE " ON UNIT  52 AT TIME STEP  2, STRESS PERIOD   2
 UBDSV1 SAVING "FLOW FRONT FACE " ON UNIT  52 AT TIME STEP  2, STRESS PERIOD   2
 UBUDSV SAVING "           GW ET" ON UNIT 52 AT TIME STEP  2, STRESS PERIOD    2
 UBUDSV SAVING "    UZF RECHARGE" ON UNIT 52 AT TIME STEP  2, STRESS PERIOD    2
 UBUDSV SAVING " SURFACE LEAKAGE" ON UNIT 52 AT TIME STEP  2, STRESS PERIOD    2
 UBUDSV SAVING "       HORT+DUNN" ON UNIT 52 AT TIME STEP  2, STRESS PERIOD    2
 UBUDSV SAVING "  STORAGE CHANGE" ON UNIT 52 AT TIME STEP  2, STRESS PERIOD    2
 UBDSV4 SAVING "           AG WE" ON UNIT  52 AT TIME STEP  2, STRESS PERIOD   2

 HEAD WILL BE SAVED ON UNIT   51 AT END OF TIME STEP    2, STRESS PERIOD    2
 
 SOLVING FOR HEAD 

    ------------------------------------------------
       NWT REQUIRED            1 OUTER ITERATIONS 
       AND A TOTAL OF          2 INNER ITERATIONS.
    ------------------------------------------------

 OUTPUT CONTROL FOR STRESS PERIOD    2   TIME STEP    3
    SAVE HEAD FOR ALL LAYERS
    SAVE BUDGET
 UBDSV1 SAVING "         STORAGE" ON UNIT  52 AT TIME STEP  3, STRESS PERIOD   2
 UBDSV2 SAVING "   CONSTANT HEAD" ON UNIT  52 AT TIME STEP  3, STRESS PERIOD   2
 UBDSV1 SAVING "FLOW RIGHT FACE " ON UNIT  52 AT TIME STEP  3, STRESS PERIOD   2
 UBDSV1 SAVING "FLOW FRONT FACE " ON UNIT  52 AT TIME STEP  3, STRESS PERIOD   2
 UBUDSV SAVING "           GW ET" ON UNIT 52 AT TIME STEP  3, STRESS PERIOD    2
 UBUDSV SAVING "    UZF RECHARGE" ON UNIT 52 AT TIME STEP  3, STRESS PERIOD    2
 UBUDSV SAVING " SURFACE LEAKAGE" ON UNIT 52 AT TIME STEP  3, STRESS PERIOD    2
 UBUDSV SAVING "       HORT+DUNN" ON UNIT 52 AT TIME STEP  3, STRESS PERIOD    2
 UBUDSV SAVING "  STORAGE CHANGE" ON UNIT 52 AT TIME STEP  3, STRESS PERIOD    2
 UBDSV4 SAVING "           AG WE" ON UNIT  52 AT TIME STEP  3, STRESS PERIOD   2

 HEAD WILL BE SAVED ON UNIT   51 AT END OF TIME STEP    3, STRESS PERIOD    2
 
 SOLVING FOR HEAD 

    ------------------------------------------------
       NWT REQUIRED            1 OUTER ITERATIONS 
       AND A TOTAL OF          2 INNER ITERATIONS.
    ------------------------------------------------

 OUTPUT CONTROL FOR STRESS PERIOD    2   TIME STEP    4
    SAVE HEAD FOR ALL LAYERS
    SAVE BUDGET
 UBDSV1 SAVING "         STORAGE" ON UNIT  52 AT TIME STEP  4, STRESS PERIOD   2
 UBDSV2 SAVING "   CONSTANT HEAD" ON UNIT  52 AT TIME STEP  4, STRESS PERIOD   2
 UBDSV1 SAVING "FLOW RIGHT FACE " ON UNIT  52 AT TIME STEP  4, STRESS PERIOD   2
 UBDSV1 SAVING "FLOW FRONT FACE " ON UNIT  52 AT TIME STEP  4, STRESS PERIOD   2
 UBUDSV SAVING "           GW ET" ON UNIT 52 AT TIME STEP  4, STRESS PERIOD    2
 UBUDSV SAVING "    UZF RECHARGE" ON UNIT 52 AT TIME STEP  4, STRESS PERIOD    2
 UBUDSV SAVING " SURFACE LEAKAGE" ON UNIT 52 AT TIME STEP  4, STRESS PERIOD    2
 UBUDSV SAVING "       HORT+DUNN" ON UNIT 52 AT TIME STEP  4, STRESS PERIOD    2
 UBUDSV SAVING "  STORAGE CHANGE" ON UNIT 52 AT TIME STEP  4, STRESS PERIOD    2
 UBDSV4 SAVING "           AG WE" ON UNIT  52 AT TIME STEP  4, STRESS PERIOD   2

 HEAD WILL BE SAVED ON UNIT   51 AT END OF TIME STEP    4, STRESS PERIOD    2
 
 SOLVING FOR HEAD 

    ------------------------------------------------
       NWT REQUIRED            1 OUTER ITERATIONS 
       AND A TOTAL OF          2 INNER ITERATIONS.
    ------------------------------------------------

 OUTPUT CONTROL FOR STRESS PERIOD    2   TIME STEP    5
    SAVE HEAD FOR ALL LAYERS
    SAVE BUDGET
 UBDSV1 SAVING "         STORAGE" ON UNIT  52 AT TIME STEP  5, STRESS PERIOD   2
 UBDSV2 SAVING "   CONSTANT HEAD" ON UNIT  52 AT TIME STEP  5, STRESS PERIOD   2
 UBDSV1 SAVING "FLOW RIGHT FACE " ON UNIT  52 AT TIME STEP  5, STRESS PERIOD   2
 UBDSV1 SAVING "FLOW FRONT FACE " ON UNIT  52 AT TIME STEP  5, STRESS PERIOD   2
 UBUDSV SAVING "           GW ET" ON UNIT 52 AT TIME STEP  5, STRESS PERIOD    2
 UBUDSV SAVING "    UZF RECHARGE" ON UNIT 52 AT TIME STEP  5, STRESS PERIOD    2
 UBUDSV SAVING " SURFACE LEAKAGE" ON UNIT 52 AT TIME STEP  5, STRESS PERIOD    2
 UBUDSV SAVING "       HORT+DUNN" ON UNIT 52 AT TIME STEP  5, STRESS PERIOD    2
 UBUDSV SAVING "  STORAGE CHANGE" ON UNIT 52 AT TIME STEP  5, STRESS PERIOD    2
 UBDSV4 SAVING "           AG WE" ON UNIT  52 AT TIME STEP  5, STRESS PERIOD   2

 HEAD WILL BE SAVED ON UNIT   51 AT END OF TIME STEP    5, STRESS PERIOD    2
 
 SOLVING FOR HEAD 

    ------------------------------------------------
       NWT REQUIRED            1 OUTER ITERATIONS 
       AND A TOTAL OF          2 INNER ITERATIONS.
    ------------------------------------------------

 OUTPUT CONTROL FOR STRESS PERIOD    2   TIME STEP    6
    SAVE HEAD FOR ALL LAYERS
    SAVE BUDGET
 UBDSV1 SAVING "         STORAGE" ON UNIT  52 AT TIME STEP  6, STRESS PERIOD   2
 UBDSV2 SAVING "   CONSTANT HEAD" ON UNIT  52 AT TIME STEP  6, STRESS PERIOD   2
 UBDSV1 SAVING "FLOW RIGHT FACE " ON UNIT  52 AT TIME STEP  6, STRESS PERIOD   2
 UBDSV1 SAVING "FLOW FRONT FACE " ON UNIT  52 AT TIME STEP  6, STRESS PERIOD   2
 UBUDSV SAVING "           GW ET" ON UNIT 52 AT TIME STEP  6, STRESS PERIOD    2
 UBUDSV SAVING "    UZF RECHARGE" ON UNIT 52 AT TIME STEP  6, STRESS PERIOD    2
 UBUDSV SAVING " SURFACE LEAKAGE" ON UNIT 52 AT TIME STEP  6, STRESS PERIOD    2
 UBUDSV SAVING "       HORT+DUNN" ON UNIT 52 AT TIME STEP  6, STRESS PERIOD    2
 UBUDSV SAVING "  STORAGE CHANGE" ON UNIT 52 AT TIME STEP  6, STRESS PERIOD    2
 UBDSV4 SAVING "           AG WE" ON UNIT  52 AT TIME STEP  6, STRESS PERIOD   2

 HEAD WILL BE SAVED ON UNIT   51 AT END OF TIME STEP    6, STRESS PERIOD    2
 
 SOLVING FOR HEAD 

    ------------------------------------------------
       NWT REQUIRED            1 OUTER ITERATIONS 
       AND A TOTAL OF          2 INNER ITERATIONS.
    ------------------------------------------------

 OUTPUT CONTROL FOR STRESS PERIOD    2   TIME STEP    7
    SAVE HEAD FOR ALL LAYERS
    SAVE BUDGET
 UBDSV1 SAVING "         STORAGE" ON UNIT  52 AT TIME STEP  7, STRESS PERIOD   2
 UBDSV2 SAVING "   CONSTANT HEAD" ON UNIT  52 AT TIME STEP  7, STRESS PERIOD   2
 UBDSV1 SAVING "FLOW RIGHT FACE " ON UNIT  52 AT TIME STEP  7, STRESS PERIOD   2
 UBDSV1 SAVING "FLOW FRONT FACE " ON UNIT  52 AT TIME STEP  7, STRESS PERIOD   2
 UBUDSV SAVING "           GW ET" ON UNIT 52 AT TIME STEP  7, STRESS PERIOD    2
 UBUDSV SAVING "    UZF RECHARGE" ON UNIT 52 AT TIME STEP  7, STRESS PERIOD    2
 UBUDSV SAVING " SURFACE LEAKAGE" ON UNIT 52 AT TIME STEP  7, STRESS PERIOD    2
 UBUDSV SAVING "       HORT+DUNN" ON UNIT 52 AT TIME STEP  7, STRESS PERIOD    2
 UBUDSV SAVING "  STORAGE CHANGE" ON UNIT 52 AT TIME STEP  7, STRESS PERIOD    2
 UBDSV4 SAVING "           AG WE" ON UNIT  52 AT TIME STEP  7, STRESS PERIOD   2

 HEAD WILL BE SAVED ON UNIT   51 AT END OF TIME STEP    7, STRESS PERIOD    2
 
 SOLVING FOR HEAD 

    ------------------------------------------------
       NWT REQUIRED            1 OUTER ITERATIONS 
       AND A TOTAL OF          2 INNER ITERATIONS.
    ------------------------------------------------

 OUTPUT CONTROL FOR STRESS PERIOD    2   TIME STEP    8
    SAVE HEAD FOR ALL LAYERS
    SAVE BUDGET
 UBDSV1 SAVING "         STORAGE" ON UNIT  52 AT TIME STEP  8, STRESS PERIOD   2
 UBDSV2 SAVING "   CONSTANT HEAD" ON UNIT  52 AT TIME STEP  8, STRESS PERIOD   2
 UBDSV1 SAVING "FLOW RIGHT FACE " ON UNIT  52 AT TIME STEP  8, STRESS PERIOD   2
 UBDSV1 SAVING "FLOW FRONT FACE " ON UNIT  52 AT TIME STEP  8, STRESS PERIOD   2
 UBUDSV SAVING "           GW ET" ON UNIT 52 AT TIME STEP  8, STRESS PERIOD    2
 UBUDSV SAVING "    UZF RECHARGE" ON UNIT 52 AT TIME STEP  8, STRESS PERIOD    2
 UBUDSV SAVING " SURFACE LEAKAGE" ON UNIT 52 AT TIME STEP  8, STRESS PERIOD    2
 UBUDSV SAVING "       HORT+DUNN" ON UNIT 52 AT TIME STEP  8, STRESS PERIOD    2
 UBUDSV SAVING "  STORAGE CHANGE" ON UNIT 52 AT TIME STEP  8, STRESS PERIOD    2
 UBDSV4 SAVING "           AG WE" ON UNIT  52 AT TIME STEP  8, STRESS PERIOD   2

 HEAD WILL BE SAVED ON UNIT   51 AT END OF TIME STEP    8, STRESS PERIOD    2
 
 SOLVING FOR HEAD 

    ------------------------------------------------
       NWT REQUIRED            1 OUTER ITERATIONS 
       AND A TOTAL OF          2 INNER ITERATIONS.
    ------------------------------------------------

 OUTPUT CONTROL FOR STRESS PERIOD    2   TIME STEP    9
    SAVE HEAD FOR ALL LAYERS
    SAVE BUDGET
 UBDSV1 SAVING "         STORAGE" ON UNIT  52 AT TIME STEP  9, STRESS PERIOD   2
 UBDSV2 SAVING "   CONSTANT HEAD" ON UNIT  52 AT TIME STEP  9, STRESS PERIOD   2
 UBDSV1 SAVING "FLOW RIGHT FACE " ON UNIT  52 AT TIME STEP  9, STRESS PERIOD   2
 UBDSV1 SAVING "FLOW FRONT FACE " ON UNIT  52 AT TIME STEP  9, STRESS PERIOD   2
 UBUDSV SAVING "           GW ET" ON UNIT 52 AT TIME STEP  9, STRESS PERIOD    2
 UBUDSV SAVING "    UZF RECHARGE" ON UNIT 52 AT TIME STEP  9, STRESS PERIOD    2
 UBUDSV SAVING " SURFACE LEAKAGE" ON UNIT 52 AT TIME STEP  9, STRESS PERIOD    2
 UBUDSV SAVING "       HORT+DUNN" ON UNIT 52 AT TIME STEP  9, STRESS PERIOD    2
 UBUDSV SAVING "  STORAGE CHANGE" ON UNIT 52 AT TIME STEP  9, STRESS PERIOD    2
 UBDSV4 SAVING "           AG WE" ON UNIT  52 AT TIME STEP  9, STRESS PERIOD   2

 HEAD WILL BE SAVED ON UNIT   51 AT END OF TIME STEP    9, STRESS PERIOD    2
 
 SOLVING FOR HEAD 

    ------------------------------------------------
       NWT REQUIRED            1 OUTER ITERATIONS 
       AND A TOTAL OF          2 INNER ITERATIONS.
    ------------------------------------------------

 OUTPUT CONTROL FOR STRESS PERIOD    2   TIME STEP   10
    SAVE HEAD FOR ALL LAYERS
    SAVE BUDGET
 UBDSV1 SAVING "         STORAGE" ON UNIT  52 AT TIME STEP 10, STRESS PERIOD   2
 UBDSV2 SAVING "   CONSTANT HEAD" ON UNIT  52 AT TIME STEP 10, STRESS PERIOD   2
 UBDSV1 SAVING "FLOW RIGHT FACE " ON UNIT  52 AT TIME STEP 10, STRESS PERIOD   2
 UBDSV1 SAVING "FLOW FRONT FACE " ON UNIT  52 AT TIME STEP 10, STRESS PERIOD   2
 UBUDSV SAVING "           GW ET" ON UNIT 52 AT TIME STEP 10, STRESS PERIOD    2
 UBUDSV SAVING "    UZF RECHARGE" ON UNIT 52 AT TIME STEP 10, STRESS PERIOD    2
 UBUDSV SAVING " SURFACE LEAKAGE" ON UNIT 52 AT TIME STEP 10, STRESS PERIOD    2
 UBUDSV SAVING "       HORT+DUNN" ON UNIT 52 AT TIME STEP 10, STRESS PERIOD    2
 UBUDSV SAVING "  STORAGE CHANGE" ON UNIT 52 AT TIME STEP 10, STRESS PERIOD    2
 UBDSV4 SAVING "           AG WE" ON UNIT  52 AT TIME STEP 10, STRESS PERIOD   2

 HEAD WILL BE SAVED ON UNIT   51 AT END OF TIME STEP   10, STRESS PERIOD    2
 
 SOLVING FOR HEAD 

    ------------------------------------------------
       NWT REQUIRED            1 OUTER ITERATIONS 
       AND A TOTAL OF          2 INNER ITERATIONS.
    ------------------------------------------------

 OUTPUT CONTROL FOR STRESS PERIOD    2   TIME STEP   11
    SAVE HEAD FOR ALL LAYERS
    SAVE BUDGET
 UBDSV1 SAVING "         STORAGE" ON UNIT  52 AT TIME STEP 11, STRESS PERIOD   2
 UBDSV2 SAVING "   CONSTANT HEAD" ON UNIT  52 AT TIME STEP 11, STRESS PERIOD   2
 UBDSV1 SAVING "FLOW RIGHT FACE " ON UNIT  52 AT TIME STEP 11, STRESS PERIOD   2
 UBDSV1 SAVING "FLOW FRONT FACE " ON UNIT  52 AT TIME STEP 11, STRESS PERIOD   2
 UBUDSV SAVING "           GW ET" ON UNIT 52 AT TIME STEP 11, STRESS PERIOD    2
 UBUDSV SAVING "    UZF RECHARGE" ON UNIT 52 AT TIME STEP 11, STRESS PERIOD    2
 UBUDSV SAVING " SURFACE LEAKAGE" ON UNIT 52 AT TIME STEP 11, STRESS PERIOD    2
 UBUDSV SAVING "       HORT+DUNN" ON UNIT 52 AT TIME STEP 11, STRESS PERIOD    2
 UBUDSV SAVING "  STORAGE CHANGE" ON UNIT 52 AT TIME STEP 11, STRESS PERIOD    2
 UBDSV4 SAVING "           AG WE" ON UNIT  52 AT TIME STEP 11, STRESS PERIOD   2

 HEAD WILL BE SAVED ON UNIT   51 AT END OF TIME STEP   11, STRESS PERIOD    2
 
 SOLVING FOR HEAD 

    ------------------------------------------------
       NWT REQUIRED            1 OUTER ITERATIONS 
       AND A TOTAL OF          2 INNER ITERATIONS.
    ------------------------------------------------

 OUTPUT CONTROL FOR STRESS PERIOD    2   TIME STEP   12
    SAVE HEAD FOR ALL LAYERS
    SAVE BUDGET
 UBDSV1 SAVING "         STORAGE" ON UNIT  52 AT TIME STEP 12, STRESS PERIOD   2
 UBDSV2 SAVING "   CONSTANT HEAD" ON UNIT  52 AT TIME STEP 12, STRESS PERIOD   2
 UBDSV1 SAVING "FLOW RIGHT FACE " ON UNIT  52 AT TIME STEP 12, STRESS PERIOD   2
 UBDSV1 SAVING "FLOW FRONT FACE " ON UNIT  52 AT TIME STEP 12, STRESS PERIOD   2
 UBUDSV SAVING "           GW ET" ON UNIT 52 AT TIME STEP 12, STRESS PERIOD    2
 UBUDSV SAVING "    UZF RECHARGE" ON UNIT 52 AT TIME STEP 12, STRESS PERIOD    2
 UBUDSV SAVING " SURFACE LEAKAGE" ON UNIT 52 AT TIME STEP 12, STRESS PERIOD    2
 UBUDSV SAVING "       HORT+DUNN" ON UNIT 52 AT TIME STEP 12, STRESS PERIOD    2
 UBUDSV SAVING "  STORAGE CHANGE" ON UNIT 52 AT TIME STEP 12, STRESS PERIOD    2
 UBDSV4 SAVING "           AG WE" ON UNIT  52 AT TIME STEP 12, STRESS PERIOD   2

 HEAD WILL BE SAVED ON UNIT   51 AT END OF TIME STEP   12, STRESS PERIOD    2
 
 SOLVING FOR HEAD 

    ------------------------------------------------
       NWT REQUIRED            1 OUTER ITERATIONS 
       AND A TOTAL OF          2 INNER ITERATIONS.
    ------------------------------------------------

 OUTPUT CONTROL FOR STRESS PERIOD    2   TIME STEP   13
    SAVE HEAD FOR ALL LAYERS
    SAVE BUDGET
 UBDSV1 SAVING "         STORAGE" ON UNIT  52 AT TIME STEP 13, STRESS PERIOD   2
 UBDSV2 SAVING "   CONSTANT HEAD" ON UNIT  52 AT TIME STEP 13, STRESS PERIOD   2
 UBDSV1 SAVING "FLOW RIGHT FACE " ON UNIT  52 AT TIME STEP 13, STRESS PERIOD   2
 UBDSV1 SAVING "FLOW FRONT FACE " ON UNIT  52 AT TIME STEP 13, STRESS PERIOD   2
 UBUDSV SAVING "           GW ET" ON UNIT 52 AT TIME STEP 13, STRESS PERIOD    2
 UBUDSV SAVING "    UZF RECHARGE" ON UNIT 52 AT TIME STEP 13, STRESS PERIOD    2
 UBUDSV SAVING " SURFACE LEAKAGE" ON UNIT 52 AT TIME STEP 13, STRESS PERIOD    2
 UBUDSV SAVING "       HORT+DUNN" ON UNIT 52 AT TIME STEP 13, STRESS PERIOD    2
 UBUDSV SAVING "  STORAGE CHANGE" ON UNIT 52 AT TIME STEP 13, STRESS PERIOD    2
 UBDSV4 SAVING "           AG WE" ON UNIT  52 AT TIME STEP 13, STRESS PERIOD   2

 HEAD WILL BE SAVED ON UNIT   51 AT END OF TIME STEP   13, STRESS PERIOD    2
 
 SOLVING FOR HEAD 

    ------------------------------------------------
       NWT REQUIRED            1 OUTER ITERATIONS 
       AND A TOTAL OF          2 INNER ITERATIONS.
    ------------------------------------------------

 OUTPUT CONTROL FOR STRESS PERIOD    2   TIME STEP   14
    SAVE HEAD FOR ALL LAYERS
    SAVE BUDGET
 UBDSV1 SAVING "         STORAGE" ON UNIT  52 AT TIME STEP 14, STRESS PERIOD   2
 UBDSV2 SAVING "   CONSTANT HEAD" ON UNIT  52 AT TIME STEP 14, STRESS PERIOD   2
 UBDSV1 SAVING "FLOW RIGHT FACE " ON UNIT  52 AT TIME STEP 14, STRESS PERIOD   2
 UBDSV1 SAVING "FLOW FRONT FACE " ON UNIT  52 AT TIME STEP 14, STRESS PERIOD   2
 UBUDSV SAVING "           GW ET" ON UNIT 52 AT TIME STEP 14, STRESS PERIOD    2
 UBUDSV SAVING "    UZF RECHARGE" ON UNIT 52 AT TIME STEP 14, STRESS PERIOD    2
 UBUDSV SAVING " SURFACE LEAKAGE" ON UNIT 52 AT TIME STEP 14, STRESS PERIOD    2
 UBUDSV SAVING "       HORT+DUNN" ON UNIT 52 AT TIME STEP 14, STRESS PERIOD    2
 UBUDSV SAVING "  STORAGE CHANGE" ON UNIT 52 AT TIME STEP 14, STRESS PERIOD    2
 UBDSV4 SAVING "           AG WE" ON UNIT  52 AT TIME STEP 14, STRESS PERIOD   2

 HEAD WILL BE SAVED ON UNIT   51 AT END OF TIME STEP   14, STRESS PERIOD    2
 
 SOLVING FOR HEAD 

    ------------------------------------------------
       NWT REQUIRED            1 OUTER ITERATIONS 
       AND A TOTAL OF          2 INNER ITERATIONS.
    ------------------------------------------------

 OUTPUT CONTROL FOR STRESS PERIOD    2   TIME STEP   15
    SAVE HEAD FOR ALL LAYERS
    SAVE BUDGET
 UBDSV1 SAVING "         STORAGE" ON UNIT  52 AT TIME STEP 15, STRESS PERIOD   2
 UBDSV2 SAVING "   CONSTANT HEAD" ON UNIT  52 AT TIME STEP 15, STRESS PERIOD   2
 UBDSV1 SAVING "FLOW RIGHT FACE " ON UNIT  52 AT TIME STEP 15, STRESS PERIOD   2
 UBDSV1 SAVING "FLOW FRONT FACE " ON UNIT  52 AT TIME STEP 15, STRESS PERIOD   2
 UBUDSV SAVING "           GW ET" ON UNIT 52 AT TIME STEP 15, STRESS PERIOD    2
 UBUDSV SAVING "    UZF RECHARGE" ON UNIT 52 AT TIME STEP 15, STRESS PERIOD    2
 UBUDSV SAVING " SURFACE LEAKAGE" ON UNIT 52 AT TIME STEP 15, STRESS PERIOD    2
 UBUDSV SAVING "       HORT+DUNN" ON UNIT 52 AT TIME STEP 15, STRESS PERIOD    2
 UBUDSV SAVING "  STORAGE CHANGE" ON UNIT 52 AT TIME STEP 15, STRESS PERIOD    2
 UBDSV4 SAVING "           AG WE" ON UNIT  52 AT TIME STEP 15, STRESS PERIOD   2

 HEAD WILL BE SAVED ON UNIT   51 AT END OF TIME STEP   15, STRESS PERIOD    2
 
 SOLVING FOR HEAD 

    ------------------------------------------------
       NWT REQUIRED            1 OUTER ITERATIONS 
       AND A TOTAL OF          2 INNER ITERATIONS.
    ------------------------------------------------

 OUTPUT CONTROL FOR STRESS PERIOD    2   TIME STEP   16
    SAVE HEAD FOR ALL LAYERS
    SAVE BUDGET
 UBDSV1 SAVING "         STORAGE" ON UNIT  52 AT TIME STEP 16, STRESS PERIOD   2
 UBDSV2 SAVING "   CONSTANT HEAD" ON UNIT  52 AT TIME STEP 16, STRESS PERIOD   2
 UBDSV1 SAVING "FLOW RIGHT FACE " ON UNIT  52 AT TIME STEP 16, STRESS PERIOD   2
 UBDSV1 SAVING "FLOW FRONT FACE " ON UNIT  52 AT TIME STEP 16, STRESS PERIOD   2
 UBUDSV SAVING "           GW ET" ON UNIT 52 AT TIME STEP 16, STRESS PERIOD    2
 UBUDSV SAVING "    UZF RECHARGE" ON UNIT 52 AT TIME STEP 16, STRESS PERIOD    2
 UBUDSV SAVING " SURFACE LEAKAGE" ON UNIT 52 AT TIME STEP 16, STRESS PERIOD    2
 UBUDSV SAVING "       HORT+DUNN" ON UNIT 52 AT TIME STEP 16, STRESS PERIOD    2
 UBUDSV SAVING "  STORAGE CHANGE" ON UNIT 52 AT TIME STEP 16, STRESS PERIOD    2
 UBDSV4 SAVING "           AG WE" ON UNIT  52 AT TIME STEP 16, STRESS PERIOD   2

 HEAD WILL BE SAVED ON UNIT   51 AT END OF TIME STEP   16, STRESS PERIOD    2
 
 SOLVING FOR HEAD 

    ------------------------------------------------
       NWT REQUIRED            1 OUTER ITERATIONS 
       AND A TOTAL OF          2 INNER ITERATIONS.
    ------------------------------------------------

 OUTPUT CONTROL FOR STRESS PERIOD    2   TIME STEP   17
    SAVE HEAD FOR ALL LAYERS
    SAVE BUDGET
 UBDSV1 SAVING "         STORAGE" ON UNIT  52 AT TIME STEP 17, STRESS PERIOD   2
 UBDSV2 SAVING "   CONSTANT HEAD" ON UNIT  52 AT TIME STEP 17, STRESS PERIOD   2
 UBDSV1 SAVING "FLOW RIGHT FACE " ON UNIT  52 AT TIME STEP 17, STRESS PERIOD   2
 UBDSV1 SAVING "FLOW FRONT FACE " ON UNIT  52 AT TIME STEP 17, STRESS PERIOD   2
 UBUDSV SAVING "           GW ET" ON UNIT 52 AT TIME STEP 17, STRESS PERIOD    2
 UBUDSV SAVING "    UZF RECHARGE" ON UNIT 52 AT TIME STEP 17, STRESS PERIOD    2
 UBUDSV SAVING " SURFACE LEAKAGE" ON UNIT 52 AT TIME STEP 17, STRESS PERIOD    2
 UBUDSV SAVING "       HORT+DUNN" ON UNIT 52 AT TIME STEP 17, STRESS PERIOD    2
 UBUDSV SAVING "  STORAGE CHANGE" ON UNIT 52 AT TIME STEP 17, STRESS PERIOD    2
 UBDSV4 SAVING "           AG WE" ON UNIT  52 AT TIME STEP 17, STRESS PERIOD   2

 HEAD WILL BE SAVED ON UNIT   51 AT END OF TIME STEP   17, STRESS PERIOD    2
 
 SOLVING FOR HEAD 

    ------------------------------------------------
       NWT REQUIRED            1 OUTER ITERATIONS 
       AND A TOTAL OF          2 INNER ITERATIONS.
    ------------------------------------------------

 OUTPUT CONTROL FOR STRESS PERIOD    2   TIME STEP   18
    SAVE HEAD FOR ALL LAYERS
    SAVE BUDGET
 UBDSV1 SAVING "         STORAGE" ON UNIT  52 AT TIME STEP 18, STRESS PERIOD   2
 UBDSV2 SAVING "   CONSTANT HEAD" ON UNIT  52 AT TIME STEP 18, STRESS PERIOD   2
 UBDSV1 SAVING "FLOW RIGHT FACE " ON UNIT  52 AT TIME STEP 18, STRESS PERIOD   2
 UBDSV1 SAVING "FLOW FRONT FACE " ON UNIT  52 AT TIME STEP 18, STRESS PERIOD   2
 UBUDSV SAVING "           GW ET" ON UNIT 52 AT TIME STEP 18, STRESS PERIOD    2
 UBUDSV SAVING "    UZF RECHARGE" ON UNIT 52 AT TIME STEP 18, STRESS PERIOD    2
 UBUDSV SAVING " SURFACE LEAKAGE" ON UNIT 52 AT TIME STEP 18, STRESS PERIOD    2
 UBUDSV SAVING "       HORT+DUNN" ON UNIT 52 AT TIME STEP 18, STRESS PERIOD    2
 UBUDSV SAVING "  STORAGE CHANGE" ON UNIT 52 AT TIME STEP 18, STRESS PERIOD    2
 UBDSV4 SAVING "           AG WE" ON UNIT  52 AT TIME STEP 18, STRESS PERIOD   2

 HEAD WILL BE SAVED ON UNIT   51 AT END OF TIME STEP   18, STRESS PERIOD    2
 
 SOLVING FOR HEAD 

    ------------------------------------------------
       NWT REQUIRED            1 OUTER ITERATIONS 
       AND A TOTAL OF          2 INNER ITERATIONS.
    ------------------------------------------------

 OUTPUT CONTROL FOR STRESS PERIOD    2   TIME STEP   19
    SAVE HEAD FOR ALL LAYERS
    SAVE BUDGET
 UBDSV1 SAVING "         STORAGE" ON UNIT  52 AT TIME STEP 19, STRESS PERIOD   2
 UBDSV2 SAVING "   CONSTANT HEAD" ON UNIT  52 AT TIME STEP 19, STRESS PERIOD   2
 UBDSV1 SAVING "FLOW RIGHT FACE " ON UNIT  52 AT TIME STEP 19, STRESS PERIOD   2
 UBDSV1 SAVING "FLOW FRONT FACE " ON UNIT  52 AT TIME STEP 19, STRESS PERIOD   2
 UBUDSV SAVING "           GW ET" ON UNIT 52 AT TIME STEP 19, STRESS PERIOD    2
 UBUDSV SAVING "    UZF RECHARGE" ON UNIT 52 AT TIME STEP 19, STRESS PERIOD    2
 UBUDSV SAVING " SURFACE LEAKAGE" ON UNIT 52 AT TIME STEP 19, STRESS PERIOD    2
 UBUDSV SAVING "       HORT+DUNN" ON UNIT 52 AT TIME STEP 19, STRESS PERIOD    2
 UBUDSV SAVING "  STORAGE CHANGE" ON UNIT 52 AT TIME STEP 19, STRESS PERIOD    2
 UBDSV4 SAVING "           AG WE" ON UNIT  52 AT TIME STEP 19, STRESS PERIOD   2

 HEAD WILL BE SAVED ON UNIT   51 AT END OF TIME STEP   19, STRESS PERIOD    2
 
 SOLVING FOR HEAD 

    ------------------------------------------------
       NWT REQUIRED            1 OUTER ITERATIONS 
       AND A TOTAL OF          2 INNER ITERATIONS.
    ------------------------------------------------

 OUTPUT CONTROL FOR STRESS PERIOD    2   TIME STEP   20
    SAVE HEAD FOR ALL LAYERS
    SAVE BUDGET
 UBDSV1 SAVING "         STORAGE" ON UNIT  52 AT TIME STEP 20, STRESS PERIOD   2
 UBDSV2 SAVING "   CONSTANT HEAD" ON UNIT  52 AT TIME STEP 20, STRESS PERIOD   2
 UBDSV1 SAVING "FLOW RIGHT FACE " ON UNIT  52 AT TIME STEP 20, STRESS PERIOD   2
 UBDSV1 SAVING "FLOW FRONT FACE " ON UNIT  52 AT TIME STEP 20, STRESS PERIOD   2
 UBUDSV SAVING "           GW ET" ON UNIT 52 AT TIME STEP 20, STRESS PERIOD    2
 UBUDSV SAVING "    UZF RECHARGE" ON UNIT 52 AT TIME STEP 20, STRESS PERIOD    2
 UBUDSV SAVING " SURFACE LEAKAGE" ON UNIT 52 AT TIME STEP 20, STRESS PERIOD    2
 UBUDSV SAVING "       HORT+DUNN" ON UNIT 52 AT TIME STEP 20, STRESS PERIOD    2
 UBUDSV SAVING "  STORAGE CHANGE" ON UNIT 52 AT TIME STEP 20, STRESS PERIOD    2
 UBDSV4 SAVING "           AG WE" ON UNIT  52 AT TIME STEP 20, STRESS PERIOD   2

[...]
 UBUDSV SAVING " SURFACE LEAKAGE" ON UNIT 52 AT TIME STEP 20, STRESS PERIOD   12
 UBUDSV SAVING "       HORT+DUNN" ON UNIT 52 AT TIME STEP 20, STRESS PERIOD   12
 UBUDSV SAVING "  STORAGE CHANGE" ON UNIT 52 AT TIME STEP 20, STRESS PERIOD   12
 UBDSV4 SAVING "           AG WE" ON UNIT  52 AT TIME STEP 20, STRESS PERIOD  12

 HEAD WILL BE SAVED ON UNIT   51 AT END OF TIME STEP   20, STRESS PERIOD   12
 
 SOLVING FOR HEAD 

    ------------------------------------------------
       NWT REQUIRED            1 OUTER ITERATIONS 
       AND A TOTAL OF          2 INNER ITERATIONS.
    ------------------------------------------------

 OUTPUT CONTROL FOR STRESS PERIOD   12   TIME STEP   21
    SAVE HEAD FOR ALL LAYERS
    SAVE BUDGET
 UBDSV1 SAVING "         STORAGE" ON UNIT  52 AT TIME STEP 21, STRESS PERIOD  12
 UBDSV2 SAVING "   CONSTANT HEAD" ON UNIT  52 AT TIME STEP 21, STRESS PERIOD  12
 UBDSV1 SAVING "FLOW RIGHT FACE " ON UNIT  52 AT TIME STEP 21, STRESS PERIOD  12
 UBDSV1 SAVING "FLOW FRONT FACE " ON UNIT  52 AT TIME STEP 21, STRESS PERIOD  12
 UBUDSV SAVING "           GW ET" ON UNIT 52 AT TIME STEP 21, STRESS PERIOD   12
 UBUDSV SAVING "    UZF RECHARGE" ON UNIT 52 AT TIME STEP 21, STRESS PERIOD   12
 UBUDSV SAVING " SURFACE LEAKAGE" ON UNIT 52 AT TIME STEP 21, STRESS PERIOD   12
 UBUDSV SAVING "       HORT+DUNN" ON UNIT 52 AT TIME STEP 21, STRESS PERIOD   12
 UBUDSV SAVING "  STORAGE CHANGE" ON UNIT 52 AT TIME STEP 21, STRESS PERIOD   12
 UBDSV4 SAVING "           AG WE" ON UNIT  52 AT TIME STEP 21, STRESS PERIOD  12

 HEAD WILL BE SAVED ON UNIT   51 AT END OF TIME STEP   21, STRESS PERIOD   12
 
 SOLVING FOR HEAD 

    ------------------------------------------------
       NWT REQUIRED            1 OUTER ITERATIONS 
       AND A TOTAL OF          2 INNER ITERATIONS.
    ------------------------------------------------

 OUTPUT CONTROL FOR STRESS PERIOD   12   TIME STEP   22
    SAVE HEAD FOR ALL LAYERS
    SAVE BUDGET
 UBDSV1 SAVING "         STORAGE" ON UNIT  52 AT TIME STEP 22, STRESS PERIOD  12
 UBDSV2 SAVING "   CONSTANT HEAD" ON UNIT  52 AT TIME STEP 22, STRESS PERIOD  12
 UBDSV1 SAVING "FLOW RIGHT FACE " ON UNIT  52 AT TIME STEP 22, STRESS PERIOD  12
 UBDSV1 SAVING "FLOW FRONT FACE " ON UNIT  52 AT TIME STEP 22, STRESS PERIOD  12
 UBUDSV SAVING "           GW ET" ON UNIT 52 AT TIME STEP 22, STRESS PERIOD   12
 UBUDSV SAVING "    UZF RECHARGE" ON UNIT 52 AT TIME STEP 22, STRESS PERIOD   12
 UBUDSV SAVING " SURFACE LEAKAGE" ON UNIT 52 AT TIME STEP 22, STRESS PERIOD   12
 UBUDSV SAVING "       HORT+DUNN" ON UNIT 52 AT TIME STEP 22, STRESS PERIOD   12
 UBUDSV SAVING "  STORAGE CHANGE" ON UNIT 52 AT TIME STEP 22, STRESS PERIOD   12
 UBDSV4 SAVING "           AG WE" ON UNIT  52 AT TIME STEP 22, STRESS PERIOD  12

 HEAD WILL BE SAVED ON UNIT   51 AT END OF TIME STEP   22, STRESS PERIOD   12
 
 SOLVING FOR HEAD 

    ------------------------------------------------
       NWT REQUIRED            1 OUTER ITERATIONS 
       AND A TOTAL OF          2 INNER ITERATIONS.
    ------------------------------------------------

 OUTPUT CONTROL FOR STRESS PERIOD   12   TIME STEP   23
    SAVE HEAD FOR ALL LAYERS
    SAVE BUDGET
 UBDSV1 SAVING "         STORAGE" ON UNIT  52 AT TIME STEP 23, STRESS PERIOD  12
 UBDSV2 SAVING "   CONSTANT HEAD" ON UNIT  52 AT TIME STEP 23, STRESS PERIOD  12
 UBDSV1 SAVING "FLOW RIGHT FACE " ON UNIT  52 AT TIME STEP 23, STRESS PERIOD  12
 UBDSV1 SAVING "FLOW FRONT FACE " ON UNIT  52 AT TIME STEP 23, STRESS PERIOD  12
 UBUDSV SAVING "           GW ET" ON UNIT 52 AT TIME STEP 23, STRESS PERIOD   12
 UBUDSV SAVING "    UZF RECHARGE" ON UNIT 52 AT TIME STEP 23, STRESS PERIOD   12
 UBUDSV SAVING " SURFACE LEAKAGE" ON UNIT 52 AT TIME STEP 23, STRESS PERIOD   12
 UBUDSV SAVING "       HORT+DUNN" ON UNIT 52 AT TIME STEP 23, STRESS PERIOD   12
 UBUDSV SAVING "  STORAGE CHANGE" ON UNIT 52 AT TIME STEP 23, STRESS PERIOD   12
 UBDSV4 SAVING "           AG WE" ON UNIT  52 AT TIME STEP 23, STRESS PERIOD  12

 HEAD WILL BE SAVED ON UNIT   51 AT END OF TIME STEP   23, STRESS PERIOD   12
 
 SOLVING FOR HEAD 

    ------------------------------------------------
       NWT REQUIRED            1 OUTER ITERATIONS 
       AND A TOTAL OF          2 INNER ITERATIONS.
    ------------------------------------------------

 OUTPUT CONTROL FOR STRESS PERIOD   12   TIME STEP   24
    SAVE HEAD FOR ALL LAYERS
    SAVE BUDGET
 UBDSV1 SAVING "         STORAGE" ON UNIT  52 AT TIME STEP 24, STRESS PERIOD  12
 UBDSV2 SAVING "   CONSTANT HEAD" ON UNIT  52 AT TIME STEP 24, STRESS PERIOD  12
 UBDSV1 SAVING "FLOW RIGHT FACE " ON UNIT  52 AT TIME STEP 24, STRESS PERIOD  12
 UBDSV1 SAVING "FLOW FRONT FACE " ON UNIT  52 AT TIME STEP 24, STRESS PERIOD  12
 UBUDSV SAVING "           GW ET" ON UNIT 52 AT TIME STEP 24, STRESS PERIOD   12
 UBUDSV SAVING "    UZF RECHARGE" ON UNIT 52 AT TIME STEP 24, STRESS PERIOD   12
 UBUDSV SAVING " SURFACE LEAKAGE" ON UNIT 52 AT TIME STEP 24, STRESS PERIOD   12
 UBUDSV SAVING "       HORT+DUNN" ON UNIT 52 AT TIME STEP 24, STRESS PERIOD   12
 UBUDSV SAVING "  STORAGE CHANGE" ON UNIT 52 AT TIME STEP 24, STRESS PERIOD   12
 UBDSV4 SAVING "           AG WE" ON UNIT  52 AT TIME STEP 24, STRESS PERIOD  12

 HEAD WILL BE SAVED ON UNIT   51 AT END OF TIME STEP   24, STRESS PERIOD   12
 
 SOLVING FOR HEAD 

    ------------------------------------------------
       NWT REQUIRED            1 OUTER ITERATIONS 
       AND A TOTAL OF          2 INNER ITERATIONS.
    ------------------------------------------------

 OUTPUT CONTROL FOR STRESS PERIOD   12   TIME STEP   25
    SAVE HEAD FOR ALL LAYERS
    SAVE BUDGET
 UBDSV1 SAVING "         STORAGE" ON UNIT  52 AT TIME STEP 25, STRESS PERIOD  12
 UBDSV2 SAVING "   CONSTANT HEAD" ON UNIT  52 AT TIME STEP 25, STRESS PERIOD  12
 UBDSV1 SAVING "FLOW RIGHT FACE " ON UNIT  52 AT TIME STEP 25, STRESS PERIOD  12
 UBDSV1 SAVING "FLOW FRONT FACE " ON UNIT  52 AT TIME STEP 25, STRESS PERIOD  12
 UBUDSV SAVING "           GW ET" ON UNIT 52 AT TIME STEP 25, STRESS PERIOD   12
 UBUDSV SAVING "    UZF RECHARGE" ON UNIT 52 AT TIME STEP 25, STRESS PERIOD   12
 UBUDSV SAVING " SURFACE LEAKAGE" ON UNIT 52 AT TIME STEP 25, STRESS PERIOD   12
 UBUDSV SAVING "       HORT+DUNN" ON UNIT 52 AT TIME STEP 25, STRESS PERIOD   12
 UBUDSV SAVING "  STORAGE CHANGE" ON UNIT 52 AT TIME STEP 25, STRESS PERIOD   12
 UBDSV4 SAVING "           AG WE" ON UNIT  52 AT TIME STEP 25, STRESS PERIOD  12

 HEAD WILL BE SAVED ON UNIT   51 AT END OF TIME STEP   25, STRESS PERIOD   12
 
 SOLVING FOR HEAD 

    ------------------------------------------------
       NWT REQUIRED            1 OUTER ITERATIONS 
       AND A TOTAL OF          2 INNER ITERATIONS.
    ------------------------------------------------

 OUTPUT CONTROL FOR STRESS PERIOD   12   TIME STEP   26
    SAVE HEAD FOR ALL LAYERS
    SAVE BUDGET
 UBDSV1 SAVING "         STORAGE" ON UNIT  52 AT TIME STEP 26, STRESS PERIOD  12
 UBDSV2 SAVING "   CONSTANT HEAD" ON UNIT  52 AT TIME STEP 26, STRESS PERIOD  12
 UBDSV1 SAVING "FLOW RIGHT FACE " ON UNIT  52 AT TIME STEP 26, STRESS PERIOD  12
 UBDSV1 SAVING "FLOW FRONT FACE " ON UNIT  52 AT TIME STEP 26, STRESS PERIOD  12
 UBUDSV SAVING "           GW ET" ON UNIT 52 AT TIME STEP 26, STRESS PERIOD   12
 UBUDSV SAVING "    UZF RECHARGE" ON UNIT 52 AT TIME STEP 26, STRESS PERIOD   12
 UBUDSV SAVING " SURFACE LEAKAGE" ON UNIT 52 AT TIME STEP 26, STRESS PERIOD   12
 UBUDSV SAVING "       HORT+DUNN" ON UNIT 52 AT TIME STEP 26, STRESS PERIOD   12
 UBUDSV SAVING "  STORAGE CHANGE" ON UNIT 52 AT TIME STEP 26, STRESS PERIOD   12
 UBDSV4 SAVING "           AG WE" ON UNIT  52 AT TIME STEP 26, STRESS PERIOD  12

 HEAD WILL BE SAVED ON UNIT   51 AT END OF TIME STEP   26, STRESS PERIOD   12
 
 SOLVING FOR HEAD 

    ------------------------------------------------
       NWT REQUIRED            1 OUTER ITERATIONS 
       AND A TOTAL OF          2 INNER ITERATIONS.
    ------------------------------------------------

 OUTPUT CONTROL FOR STRESS PERIOD   12   TIME STEP   27
    SAVE HEAD FOR ALL LAYERS
    SAVE BUDGET
 UBDSV1 SAVING "         STORAGE" ON UNIT  52 AT TIME STEP 27, STRESS PERIOD  12
 UBDSV2 SAVING "   CONSTANT HEAD" ON UNIT  52 AT TIME STEP 27, STRESS PERIOD  12
 UBDSV1 SAVING "FLOW RIGHT FACE " ON UNIT  52 AT TIME STEP 27, STRESS PERIOD  12
 UBDSV1 SAVING "FLOW FRONT FACE " ON UNIT  52 AT TIME STEP 27, STRESS PERIOD  12
 UBUDSV SAVING "           GW ET" ON UNIT 52 AT TIME STEP 27, STRESS PERIOD   12
 UBUDSV SAVING "    UZF RECHARGE" ON UNIT 52 AT TIME STEP 27, STRESS PERIOD   12
 UBUDSV SAVING " SURFACE LEAKAGE" ON UNIT 52 AT TIME STEP 27, STRESS PERIOD   12
 UBUDSV SAVING "       HORT+DUNN" ON UNIT 52 AT TIME STEP 27, STRESS PERIOD   12
 UBUDSV SAVING "  STORAGE CHANGE" ON UNIT 52 AT TIME STEP 27, STRESS PERIOD   12
 UBDSV4 SAVING "           AG WE" ON UNIT  52 AT TIME STEP 27, STRESS PERIOD  12

 HEAD WILL BE SAVED ON UNIT   51 AT END OF TIME STEP   27, STRESS PERIOD   12
 
 SOLVING FOR HEAD 

    ------------------------------------------------
       NWT REQUIRED            1 OUTER ITERATIONS 
       AND A TOTAL OF          2 INNER ITERATIONS.
    ------------------------------------------------

 OUTPUT CONTROL FOR STRESS PERIOD   12   TIME STEP   28
    SAVE HEAD FOR ALL LAYERS
    SAVE BUDGET
 UBDSV1 SAVING "         STORAGE" ON UNIT  52 AT TIME STEP 28, STRESS PERIOD  12
 UBDSV2 SAVING "   CONSTANT HEAD" ON UNIT  52 AT TIME STEP 28, STRESS PERIOD  12
 UBDSV1 SAVING "FLOW RIGHT FACE " ON UNIT  52 AT TIME STEP 28, STRESS PERIOD  12
 UBDSV1 SAVING "FLOW FRONT FACE " ON UNIT  52 AT TIME STEP 28, STRESS PERIOD  12
 UBUDSV SAVING "           GW ET" ON UNIT 52 AT TIME STEP 28, STRESS PERIOD   12
 UBUDSV SAVING "    UZF RECHARGE" ON UNIT 52 AT TIME STEP 28, STRESS PERIOD   12
 UBUDSV SAVING " SURFACE LEAKAGE" ON UNIT 52 AT TIME STEP 28, STRESS PERIOD   12
 UBUDSV SAVING "       HORT+DUNN" ON UNIT 52 AT TIME STEP 28, STRESS PERIOD   12
 UBUDSV SAVING "  STORAGE CHANGE" ON UNIT 52 AT TIME STEP 28, STRESS PERIOD   12
 UBDSV4 SAVING "           AG WE" ON UNIT  52 AT TIME STEP 28, STRESS PERIOD  12

 HEAD WILL BE SAVED ON UNIT   51 AT END OF TIME STEP   28, STRESS PERIOD   12
 
 SOLVING FOR HEAD 

    ------------------------------------------------
       NWT REQUIRED            1 OUTER ITERATIONS 
       AND A TOTAL OF          2 INNER ITERATIONS.
    ------------------------------------------------

 OUTPUT CONTROL FOR STRESS PERIOD   12   TIME STEP   29
    SAVE HEAD FOR ALL LAYERS
    SAVE BUDGET
 UBDSV1 SAVING "         STORAGE" ON UNIT  52 AT TIME STEP 29, STRESS PERIOD  12
 UBDSV2 SAVING "   CONSTANT HEAD" ON UNIT  52 AT TIME STEP 29, STRESS PERIOD  12
 UBDSV1 SAVING "FLOW RIGHT FACE " ON UNIT  52 AT TIME STEP 29, STRESS PERIOD  12
 UBDSV1 SAVING "FLOW FRONT FACE " ON UNIT  52 AT TIME STEP 29, STRESS PERIOD  12
 UBUDSV SAVING "           GW ET" ON UNIT 52 AT TIME STEP 29, STRESS PERIOD   12
 UBUDSV SAVING "    UZF RECHARGE" ON UNIT 52 AT TIME STEP 29, STRESS PERIOD   12
 UBUDSV SAVING " SURFACE LEAKAGE" ON UNIT 52 AT TIME STEP 29, STRESS PERIOD   12
 UBUDSV SAVING "       HORT+DUNN" ON UNIT 52 AT TIME STEP 29, STRESS PERIOD   12
 UBUDSV SAVING "  STORAGE CHANGE" ON UNIT 52 AT TIME STEP 29, STRESS PERIOD   12
 UBDSV4 SAVING "           AG WE" ON UNIT  52 AT TIME STEP 29, STRESS PERIOD  12

 HEAD WILL BE SAVED ON UNIT   51 AT END OF TIME STEP   29, STRESS PERIOD   12
 
 SOLVING FOR HEAD 

    ------------------------------------------------
       NWT REQUIRED            1 OUTER ITERATIONS 
       AND A TOTAL OF          2 INNER ITERATIONS.
    ------------------------------------------------

 OUTPUT CONTROL FOR STRESS PERIOD   12   TIME STEP   30
    SAVE HEAD FOR ALL LAYERS
    SAVE BUDGET
 UBDSV1 SAVING "         STORAGE" ON UNIT  52 AT TIME STEP 30, STRESS PERIOD  12
 UBDSV2 SAVING "   CONSTANT HEAD" ON UNIT  52 AT TIME STEP 30, STRESS PERIOD  12
 UBDSV1 SAVING "FLOW RIGHT FACE " ON UNIT  52 AT TIME STEP 30, STRESS PERIOD  12
 UBDSV1 SAVING "FLOW FRONT FACE " ON UNIT  52 AT TIME STEP 30, STRESS PERIOD  12
 UBUDSV SAVING "           GW ET" ON UNIT 52 AT TIME STEP 30, STRESS PERIOD   12
 UBUDSV SAVING "    UZF RECHARGE" ON UNIT 52 AT TIME STEP 30, STRESS PERIOD   12
 UBUDSV SAVING " SURFACE LEAKAGE" ON UNIT 52 AT TIME STEP 30, STRESS PERIOD   12
 UBUDSV SAVING "       HORT+DUNN" ON UNIT 52 AT TIME STEP 30, STRESS PERIOD   12
 UBUDSV SAVING "  STORAGE CHANGE" ON UNIT 52 AT TIME STEP 30, STRESS PERIOD   12
 UBDSV4 SAVING "           AG WE" ON UNIT  52 AT TIME STEP 30, STRESS PERIOD  12

 HEAD WILL BE SAVED ON UNIT   51 AT END OF TIME STEP   30, STRESS PERIOD   12
 
 SOLVING FOR HEAD 

    ------------------------------------------------
       NWT REQUIRED            1 OUTER ITERATIONS 
       AND A TOTAL OF          2 INNER ITERATIONS.
    ------------------------------------------------

 OUTPUT CONTROL FOR STRESS PERIOD   12   TIME STEP   31
    SAVE HEAD FOR ALL LAYERS
    SAVE BUDGET
 UBDSV1 SAVING "         STORAGE" ON UNIT  52 AT TIME STEP 31, STRESS PERIOD  12
 UBDSV2 SAVING "   CONSTANT HEAD" ON UNIT  52 AT TIME STEP 31, STRESS PERIOD  12
 UBDSV1 SAVING "FLOW RIGHT FACE " ON UNIT  52 AT TIME STEP 31, STRESS PERIOD  12
 UBDSV1 SAVING "FLOW FRONT FACE " ON UNIT  52 AT TIME STEP 31, STRESS PERIOD  12
 UBUDSV SAVING "           GW ET" ON UNIT 52 AT TIME STEP 31, STRESS PERIOD   12
 UBUDSV SAVING "    UZF RECHARGE" ON UNIT 52 AT TIME STEP 31, STRESS PERIOD   12
 UBUDSV SAVING " SURFACE LEAKAGE" ON UNIT 52 AT TIME STEP 31, STRESS PERIOD   12
 UBUDSV SAVING "       HORT+DUNN" ON UNIT 52 AT TIME STEP 31, STRESS PERIOD   12
 UBUDSV SAVING "  STORAGE CHANGE" ON UNIT 52 AT TIME STEP 31, STRESS PERIOD   12


UNSATURATED ZONE PACKAGE VOLUMETRIC BUDGET FOR  TIME STEP    31 STRESS PERIOD   12
  ------------------------------------------------------------------------------



     CUMULATIVE VOLUMES      L**3       RATES FOR THIS TIME STEP      L**3/T
     ------------------                 ------------------------

           IN:                                      IN:
           ---                                      ---
        INFILTRATION =      196259.3670          INFILTRATION =        1033.7850

          OUT:                                     OUT:
          ----                                     ----
              UZF ET =      172580.8836                UZF ET =         283.9095
        UZF RECHARGE =        9626.8756          UZF RECHARGE =           5.9254

            IN - OUT =       14051.6078              IN - OUT =         743.9501

          STORAGE:                                 STORAGE:
          --------                                 --------
      STORAGE CHANGE =       14051.3422        STORAGE CHANGE =         743.9501

 PERCENT DISCREPANCY IS DIFFERENCE BETWEEN IN-OUT MINUS CHANGE IN STORAGE
 DIVIDED BY THE AVERAGE OF IN AND OUT TIMES 100

 PERCENT DISCREPANCY =           0.00     PERCENT DISCREPANCY =           0.00






 UBDSV4 SAVING "           AG WE" ON UNIT  52 AT TIME STEP 31, STRESS PERIOD  12
1
  VOLUMETRIC BUDGET FOR AGRICULTURAL FIELDS AT TIME STEP   31, STRESS PERIOD  12
  ------------------------------------------------------------------------------

     CUMULATIVE VOLUMES      L**3       RATES FOR THIS TIME STEP      L**3/T
     ------------------                 ------------------------

           IN:                                      IN:
           ---                                      ---
               AG WELLS  =        8995.5967                 AG WELLS  =       1.4657E-02
      DIVERSION SEGMENTS =           0.0000        DIVERSION SEGMENTS =           0.0000
           GW IRRIGATION =           0.0000             GW IRRIGATION =           0.0000
           SW IRRIGATION =           0.0000             SW IRRIGATION =           0.0000
        SYSTEM LOSSES GW =           0.0000          SYSTEM LOSSES GW =           0.0000
        SYSTEM LOSSES SW =           0.0000          SYSTEM LOSSES SW =           0.0000

                TOTAL IN =        8995.5967                  TOTAL IN =       1.4657E-02

          OUT:                                     OUT:
          ----                                     ----
               AG WELLS  =           0.0000                 AG WELLS  =           0.0000
      DIVERSION SEGMENTS =           0.0000        DIVERSION SEGMENTS =           0.0000
           GW IRRIGATION =        8995.5967             GW IRRIGATION =       1.4657E-02
           SW IRRIGATION =           0.0000             SW IRRIGATION =           0.0000
        SYSTEM LOSSES GW =           0.0000          SYSTEM LOSSES GW =           0.0000
        SYSTEM LOSSES SW =           0.0000          SYSTEM LOSSES SW =           0.0000

               TOTAL OUT =        8995.5967                 TOTAL OUT =       1.4657E-02

                IN - OUT =           0.0000                  IN - OUT =           0.0000

     PERCENT DISCREPANCY =           0.00         PERCENT DISCREPANCY =           0.00




 HEAD WILL BE SAVED ON UNIT   51 AT END OF TIME STEP   31, STRESS PERIOD   12
1
  VOLUMETRIC BUDGET FOR ENTIRE MODEL AT END OF TIME STEP   31, STRESS PERIOD  12
  ------------------------------------------------------------------------------

     CUMULATIVE VOLUMES      L**3       RATES FOR THIS TIME STEP      L**3/T
     ------------------                 ------------------------

           IN:                                      IN:
           ---                                      ---
             STORAGE     =        6344.3594               STORAGE     =           3.1117
       CONSTANT HEAD     =           0.0000         CONSTANT HEAD     =           0.0000
        UZF RECHARGE     =        9626.8750          UZF RECHARGE     =           5.9254
               GW ET     =           0.0000                 GW ET     =           0.0000
     SURFACE LEAKAGE     =           0.0000       SURFACE LEAKAGE     =           0.0000
           AG WELLS      =           0.0000             AG WELLS      =           0.0000

                TOTAL IN =       15971.2344                  TOTAL IN =           9.0371

          OUT:                                     OUT:
          ----                                     ----
             STORAGE     =        6676.0938               STORAGE     =           8.7775
       CONSTANT HEAD     =           0.0000         CONSTANT HEAD     =           0.0000
        UZF RECHARGE     =           0.0000          UZF RECHARGE     =           0.0000
               GW ET     =           0.0000                 GW ET     =           0.0000
     SURFACE LEAKAGE     =           0.0000       SURFACE LEAKAGE     =           0.0000
           AG WELLS      =        8995.5967             AG WELLS      =       1.4657E-02

               TOTAL OUT =       15671.6904                 TOTAL OUT =           8.7922

                IN - OUT =         299.5439                  IN - OUT =           0.2449

     PERCENT DISCREPANCY =           1.89         PERCENT DISCREPANCY =           2.75






         TIME SUMMARY AT END OF TIME STEP   31 IN STRESS PERIOD   12
                    SECONDS     MINUTES      HOURS       DAYS        YEARS
                    -----------------------------------------------------------
   TIME STEP LENGTH  86400.      1440.0      24.000      1.0000     2.73785E-03
 STRESS PERIOD TIME 2.67840E+06  44640.      744.00      31.000     8.48734E-02
         TOTAL TIME 3.15360E+07 5.25600E+05  8760.0      365.00     0.99932    
1

 Run end date and time (yyyy/mm/dd hh:mm:ss): 2022/07/26 14:27:36
 Elapsed run time:  0.280 Seconds

