                                  MODFLOW-NWT-SWR1 
      U.S. GEOLOGICAL SURVEY MODULAR FINITE-DIFFERENCE GROUNDWATER-FLOW MODEL
                            VERSION 1.2.0 03/01/2020
                    BASED ON MODFLOW-2005 VERSION 1.12.00 02/03/2017

 LIST FILE: etdemand_div.list
                         UNIT    2

 OPENING etdemand_div.dis
 FILE TYPE:DIS   UNIT   11   STATUS:OLD    
 FORMAT:FORMATTED              ACCESS:SEQUENTIAL          

 OPENING etdemand_div.bas
 FILE TYPE:BAS6   UNIT   13   STATUS:OLD    
 FORMAT:FORMATTED              ACCESS:SEQUENTIAL          

 OPENING etdemand_div.upw
 FILE TYPE:UPW   UNIT   31   STATUS:OLD    
 FORMAT:FORMATTED              ACCESS:SEQUENTIAL          

 OPENING etdemand_div.sfr
 FILE TYPE:SFR   UNIT   17   STATUS:OLD    
 FORMAT:FORMATTED              ACCESS:SEQUENTIAL          

 OPENING etdemand_div.gage
 FILE TYPE:GAGE   UNIT  120   STATUS:OLD    
 FORMAT:FORMATTED              ACCESS:SEQUENTIAL          

 OPENING etdemand_div.uzf
 FILE TYPE:UZF   UNIT   19   STATUS:OLD    
 FORMAT:FORMATTED              ACCESS:SEQUENTIAL          

 OPENING etdemand_div.oc
 FILE TYPE:OC   UNIT   14   STATUS:OLD    
 FORMAT:FORMATTED              ACCESS:SEQUENTIAL          

 OPENING etdemand_div.nwt
 FILE TYPE:NWT   UNIT   32   STATUS:OLD    
 FORMAT:FORMATTED              ACCESS:SEQUENTIAL          

 OPENING etdemand_div.ag
 FILE TYPE:AG   UNIT   69   STATUS:OLD    
 FORMAT:FORMATTED              ACCESS:SEQUENTIAL          

 OPENING etdemand_div.cbc
 FILE TYPE:DATA(BINARY)   UNIT   52   STATUS:REPLACE
 FORMAT:BINARY                 ACCESS:SEQUENTIAL          

 OPENING gage11.txt
 FILE TYPE:DATA   UNIT   55   STATUS:UNKNOWN
 FORMAT:FORMATTED              ACCESS:SEQUENTIAL          

 OPENING gage12.txt
 FILE TYPE:DATA   UNIT   56   STATUS:UNKNOWN
 FORMAT:FORMATTED              ACCESS:SEQUENTIAL          

 OPENING etdemand_div_gage10.txt
 FILE TYPE:DATA   UNIT   57   STATUS:UNKNOWN
 FORMAT:FORMATTED              ACCESS:SEQUENTIAL          

 OPENING etdemand_div.hds
 FILE TYPE:DATA(BINARY)   UNIT   51   STATUS:REPLACE
 FORMAT:BINARY                 ACCESS:SEQUENTIAL          

 OPENING etdemand_div.diversion11.txt
 FILE TYPE:DATA   UNIT   53   STATUS:UNKNOWN
 FORMAT:FORMATTED              ACCESS:SEQUENTIAL          

 OPENING etdemand_div.diversion12.txt
 FILE TYPE:DATA   UNIT   54   STATUS:UNKNOWN
 FORMAT:FORMATTED              ACCESS:SEQUENTIAL          

 BAS -- BASIC PACKAGE, VERSION 1.2.0, 3/01/2020 INPUT READ FROM UNIT   13
 
 MODFLOW was compiled using mixed precision
 Precision of REAL variables:           6
 Precision of DOUBLE PRECISION variables:          15

 DISCRETIZATION INPUT DATA READ FROM UNIT   11
 # DIS package for MODFLOW-NWT generated by Flopy 3.3.6
    1 LAYERS        10 ROWS        10 COLUMNS
   12 STRESS PERIOD(S) IN SIMULATION
 MODEL TIME UNIT IS DAYS
 MODEL LENGTH UNIT IS METERS
  Confining bed flag for each layer:
   0

                     DELR =   63.6000    

                     DELC =   63.6000    

 TOP ELEVATION OF LAYER 1 =   100.000    

   MODEL LAYER BOTTOM EL. =   0.00000     FOR LAYER   1


 STRESS PERIOD     LENGTH       TIME STEPS     MULTIPLIER FOR DELT    SS FLAG
 ----------------------------------------------------------------------------
        1         31.00000         31                    1.000         TR
        2         28.00000         28                    1.000         TR
        3         31.00000         31                    1.000         TR
        4         30.00000         30                    1.000         TR
        5         31.00000         31                    1.000         TR
        6         30.00000         30                    1.000         TR
        7         31.00000         31                    1.000         TR
        8         31.00000         31                    1.000         TR
        9         30.00000         30                    1.000         TR
       10         31.00000         31                    1.000         TR
       11         30.00000         30                    1.000         TR
       12         31.00000         31                    1.000         TR

 TRANSIENT SIMULATION



 
 # BAS6 package for MODFLOW-NWT generated by Flopy 3.3.6                         
 THE FREE FORMAT OPTION HAS BEEN SELECTED



                     BOUNDARY ARRAY FOR LAYER   1
 READING ON UNIT   13 WITH FORMAT: (10I10)             

 AQUIFER HEAD WILL BE SET TO  -999.99     AT ALL NO-FLOW NODES (IBOUND=0).



                       INITIAL HEAD FOR LAYER   1
 READING ON UNIT   13 WITH FORMAT: (10E15.6)           
 # OC package for MODFLOW-NWT generated by Flopy 3.3.6

 OUTPUT CONTROL IS SPECIFIED ONLY AT TIME STEPS FOR WHICH OUTPUT IS DESIRED
 COMPACT CELL-BY-CELL BUDGET FILES WILL BE WRITTEN
 AUXILIARY DATA WILL BE SAVED IN CELL-BY-CELL BUDGET FILES
 HEAD PRINT FORMAT CODE IS   0    DRAWDOWN PRINT FORMAT CODE IS   0
 HEADS WILL BE SAVED ON UNIT   51    DRAWDOWNS WILL BE SAVED ON UNIT    0
 # NWT package for MODFLOW-NWT generated by Flopy 3.3.6

 NWT1 -- Newton Solver, VERSION 1.2.0, 3/01/2020
         INPUT READ FROM UNIT 32

 COMPLEX OPTION:
 DEFAULT SOLVER INPUT VALUES REFLECT STRONGLY NONLINEAR MODEL
 ***GMRES linear solver will be used***
 
   CONVERGENCE CRITERION OF   0.200000E-01 FOR HEAD SOLUTION
   AND A TOLERANCE OF   0.500000E+02 FOR FLOW SOLUTION AND 
   A MAXIMUM OF   100 OUTER ITERATIONS. 


   D-B-D REDUCTION FACTOR OF    0.850000E+00 AND 
   A D-B-D INCREASE FACTOR OF    0.100000E-04 AND 
   A D-B-D RELAXATION OF    0.000000E+00 AND 
   A MOMENTUM FACTOR OF    0.100000E+00 .


   BACKTRACKING IS ACTIVE 
   THE MAXIMUM NUMBER OF BACKTRACKS IS    50 AND 
   THE BACKTRACKING TOLERANCE IS    0.110000E+01 AND
   THE BACKTRACKING REDUCTION FACTOR IS    0.700000E+00

 GMRES -- LINEAR SOLUTION BY GMRES PACKAGE 
     adapted for HYDROTHERM by Kipp and others (2008)
     using software originally developed by Saad (1990) 32
     using algorithms described in Saad (2003)

 UPW1 -- UPSTREAM WEIGHTING FLOW PACKAGE, VERSION 1.2.0, 3/01/2020
         INPUT READ FROM UNIT 31

 # UPW package for MODFLOW-NWT generated by Flopy 3.3.6
 CELL-BY-CELL FLOWS WILL BE SAVED ON UNIT   52
 No named parameters

   LAYER FLAGS:
 LAYER       LAYTYP          LAYAVG    CHANI           LAYVKA           LAYWET
 ---------------------------------------------------------------------------
    1             1             0     1.000E+00             0             0

   INTERPRETATION OF LAYER FLAGS:
                        INTERBLOCK     HORIZONTAL    DATA IN
         LAYER TYPE   TRANSMISSIVITY   ANISOTROPY   ARRAY VKA   WETTABILITY
 LAYER   (LAYTYP)        (LAYAVG)      (CHANI)     (LAYVKA)       (LAYWET)
 ---------------------------------------------------------------------------
    1   CONVERTIBLE      HARMONIC     1.000E+00    VERTICAL K  NON-WETTABLE

    HYD. COND. ALONG ROWS =   1.00000     FOR LAYER   1

      VERTICAL HYD. COND. =   1.00000     FOR LAYER   1

         SPECIFIC STORAGE =  1.000000E-05 FOR LAYER   1

           SPECIFIC YIELD =  0.150000     FOR LAYER   1

 SFR7 -- STREAMFLOW ROUTING PACKAGE, VERSION 1.0.5, 2012-04-05
         INPUT READ FROM UNIT  17
 # SFR package for MODFLOW-NWT generated by Flopy 3.3.6
 No named parameters


 NUMBER OF STREAM REACHES IS   12

 NUMBER OF STREAM SEGMENTS IS   12

 NUMBER OF STREAM PARAMETERS IS    0

 NUMBER OF STREAM SEGMENTS DEFINED USING PARAMETERS IS              0

 MAXIMUM ERROR FOR STREAM LEAKAGE RATES IS  1.00E-04

 CONSTANT FOR MANNINGS EQUATION IS  8.6400E+04



 FLOW TO AND FROM GROUND WATER FOR EACH STREAM REACH WILL BE SAVED ON UNIT   52


   STREAM NETWORK DESCRIPTION: 

   LAYER    ROW    COL   SEGMENT   REACH     LENGTH
                          NUMBER   NUMBER    IN CELL        
   --------------------------------------------------
      1      1      8       1        1    1.0000E+02
      1      2      8       2        1    1.0000E+02
      1      3      8       3        1    1.0000E+02
      1      4      8       4        1    1.0000E+02
      1      5      8       5        1    1.0000E+02
      1      6      8       6        1    1.0000E+02
      1      7      8       7        1    1.0000E+02
      1      8      8       8        1    1.0000E+02
      1      9      8       9        1    1.0000E+02
      1     10      8      10        1    1.0000E+02
      1      3      7      11        1    1.0000E+02
      1      5      7      12        1    1.0000E+02




 UZF1 -- UNSATURATED FLOW PACKAGE, VERSION 1.5, 09/10/2019
         INPUT READ FROM UNIT 19
 # UZF package for MODFLOW-NWT generated by Flopy 3.3.6
 No named parameters

 PROCESSING UZF OPTIONS
 
 
 RESIDUAL WATER CONTENT (THTR) WILL BE 
READ AND USED FOR THE FIRST TRANSIENT STRESS 
PERIOD
 
 
 INITIAL WATER CONTENT (THTI) WILL BE 
READ FOR THE FIRST SS OR TR STRESS PERIOD
 

 END PROCESSING UZF OPTIONS



            AREAL EXTENT OF UZ FLOW
 READING ON UNIT   19 WITH FORMAT: (10I10)             
 OPTION 1 -- RECHARGE IN UZF TO TOP LAYER ONLY 

     SATURATED VERTICAL K =   8.64000    

     BROOKS-COREY EPSILON =   5.00000    

  SATURATED WATER CONTENT =  0.350000    

   RESIDUAL WATER CONTENT =  5.000000E-02

    INITIAL WATER CONTENT =  8.000000E-02



   3 GAGING STATIONS WERE SPECIFIED.
     (Lakes are identified by a negative value of the Lake Number)
     RECORDS WILL BE WRITTEN TO SEPARATE OUTPUT FILES REPRESENTED BY FOLLOWING UNIT NUMBERS:

 Stream Gages:
  GAGE #   SEGMENT   REACH   UNIT   OUTTYPE
       1      11       1      55       0
       2      12       1      56       5
       3      10       1      57       0





 AG -- AG PACKAGE FOR NWT VERSION 1.1.3,  8/01/2017 INPUT READ FROM UNIT   69
 # AG package for MODFLOW-NWT generated by Flopy 3.3.6

 PROCESSING AG OPTIONS
 
 OPTION TO APPLY SURFACE WATER AS IRRIGATION IS ACTIVE. DIVERTED SURFACE WATER WILL BE APPLIED TO          2 CELLS/RHUS.
 
 
 AGRICULTURAL DEMANDS WILL BE CALCULATED USING ET DEFICIT
 
 
  SURFACE WATER IRRIGATION, POTENTIAL AND ACTUAL ET WILL BE SAVED TO TIMES SERIES OUTPUT FILES.
 

 END PROCESSING AG OPTIONS
 # ag time series

 PROCESSING TIME SERIES

 FINISHED READING TIME SERIES
 A total number of          2 AG output time series files were activated for SURFACE WATER 
 A total number of          0 AG output time series files were activated for GROUNDWATER 
 A total number of          0 AG output time series files were activated for SURFACE WATER ET
 A total number of          0 AG output time series files were activated for GROUNDWATER ET
 No wells active in the AG Package
1
                            STRESS PERIOD NO.    1, LENGTH =   31.00000    
                            -----------------------------------------------

                              NUMBER OF TIME STEPS =    31

                               MULTIPLIER FOR DELT =     1.000

                            INITIAL TIME STEP SIZE =   1.000000    



 CLASSIFICATION & COUNT OF STREAM SEGMENTS BASED ON SOURCE OF INFLOW:

                HEADWATER     DIVERSION     RECEIVES TRIBUTARY FLOW
                ---------     ---------     -----------------------
                     1              2               9



                    INPUT DATA FOR EACH STREAM SEGMENT
 ---------------------------------------------------------------------------------------------

 SEGMENT    SEG.     INFLOW   OVERLAND   STREAM    STREAM   ICALC  OUTFLOW  DIVERSION PRIORITY
    NO.    LENGTH     RATE     RUNOFF      ET       PPT.    METH.  TO SEG.  FROM SEG.    NO.

      1  1.000E+02 5.000E+01 0.000E+00 0.000E+00 0.000E+00    1        2        0        0
      2  1.000E+02 0.000E+00 0.000E+00 0.000E+00 0.000E+00    1        3        0        0
      3  1.000E+02 0.000E+00 0.000E+00 0.000E+00 0.000E+00    1        4        0        0
      4  1.000E+02 0.000E+00 0.000E+00 0.000E+00 0.000E+00    1        5        0        0
      5  1.000E+02 0.000E+00 0.000E+00 0.000E+00 0.000E+00    1        6        0        0
      6  1.000E+02 0.000E+00 0.000E+00 0.000E+00 0.000E+00    1        7        0        0
      7  1.000E+02 0.000E+00 0.000E+00 0.000E+00 0.000E+00    1        8        0        0
      8  1.000E+02 0.000E+00 0.000E+00 0.000E+00 0.000E+00    1        9        0        0
      9  1.000E+02 0.000E+00 0.000E+00 0.000E+00 0.000E+00    1       10        0        0
     10  1.000E+02 0.000E+00 0.000E+00 0.000E+00 0.000E+00    1        0        0        0
     11  1.000E+02 2.000E+01 0.000E+00 0.000E+00 0.000E+00    1        0        3        0
     12  1.000E+02 1.000E+01 0.000E+00 0.000E+00 0.000E+00    1        0        5        0


         STREAMBED PROPERTIES AND STREAM DIMENSIONS

 SEGMENT     BED HYD. COND.      BED THICKNESS     ELEV.-TOP OF BED     WIDTH OF STREAM     DEPTH OF STREAM    STREAM ROUGHNESS
    No.     UPPER     LOWER     UPPER     LOWER     UPPER     LOWER     UPPER     LOWER     UPPER     LOWER   CHANNEL      BANK

     1  1.500E-05 1.500E-05 5.000E-01 5.000E-01 9.900E+01 9.898E+01 5.000E+00 5.000E+00                     3.000E-02
     2  1.500E-05 1.500E-05 5.000E-01 5.000E-01 9.898E+01 9.896E+01 5.000E+00 5.000E+00                     3.000E-02
     3  1.500E-05 1.500E-05 5.000E-01 5.000E-01 9.896E+01 9.894E+01 5.000E+00 5.000E+00                     3.000E-02
     4  1.500E-05 1.500E-05 5.000E-01 5.000E-01 9.894E+01 9.892E+01 5.000E+00 5.000E+00                     3.000E-02
     5  1.500E-05 1.500E-05 5.000E-01 5.000E-01 9.892E+01 9.890E+01 5.000E+00 5.000E+00                     3.000E-02
     6  1.500E-05 1.500E-05 5.000E-01 5.000E-01 9.890E+01 9.888E+01 5.000E+00 5.000E+00                     3.000E-02
     7  1.500E-05 1.500E-05 5.000E-01 5.000E-01 9.888E+01 9.886E+01 5.000E+00 5.000E+00                     3.000E-02
     8  1.500E-05 1.500E-05 5.000E-01 5.000E-01 9.886E+01 9.884E+01 5.000E+00 5.000E+00                     3.000E-02
     9  1.500E-05 1.500E-05 5.000E-01 5.000E-01 9.884E+01 9.882E+01 5.000E+00 5.000E+00                     3.000E-02
    10  1.500E-05 1.500E-05 5.000E-01 5.000E-01 9.882E+01 9.880E+01 5.000E+00 5.000E+00                     3.000E-02
    11  1.500E-05 1.500E-05 5.000E-01 5.000E-01 9.894E+01 9.892E+01 5.000E+00 5.000E+00                     3.000E-02
    12  1.500E-05 1.500E-05 5.000E-01 5.000E-01 9.890E+01 9.888E+01 5.000E+00 5.000E+00                     3.000E-02






            AREAL INFILTRATION RATE
 READING ON UNIT   19 WITH FORMAT: (10E15.6)           



                            ET RATE
 READING ON UNIT   19 WITH FORMAT: (10E15.6)           



                ET EXTINCTION DEPTH
 READING ON UNIT   19 WITH FORMAT: (10E15.6)           



           EXTINCTION WATER CONTENT
 READING ON UNIT   19 WITH FORMAT: (10E15.6)           
 # segment list for irrigation diversions

 PROCESSING SEGMENT LIST

 FINISHED READING SEGMENT LIST

 PROCESSING AG STRESS PERIOD DATA
 # ag stress period data

 READING AG STRESS PERIOD DATA

 READING IRRIGATION SEGMENT

 END PROCESSING AG STRESS PERIOD DATA OPTIONS
 
 SOLVING FOR HEAD 

    ------------------------------------------------
       NWT REQUIRED            1 OUTER ITERATIONS 
       AND A TOTAL OF          2 INNER ITERATIONS.
    ------------------------------------------------

 OUTPUT CONTROL FOR STRESS PERIOD    1   TIME STEP    1
    SAVE HEAD FOR ALL LAYERS
    SAVE BUDGET
 UBDSV1 SAVING "         STORAGE" ON UNIT  52 AT TIME STEP  1, STRESS PERIOD   1
 UBDSV2 SAVING "   CONSTANT HEAD" ON UNIT  52 AT TIME STEP  1, STRESS PERIOD   1
 UBDSV1 SAVING "FLOW RIGHT FACE " ON UNIT  52 AT TIME STEP  1, STRESS PERIOD   1
 UBDSV1 SAVING "FLOW FRONT FACE " ON UNIT  52 AT TIME STEP  1, STRESS PERIOD   1
 UBDSV4 SAVING "  STREAM LEAKAGE" ON UNIT  52 AT TIME STEP  1, STRESS PERIOD   1



 UBUDSV SAVING "           GW ET" ON UNIT 52 AT TIME STEP  1, STRESS PERIOD    1
 UBUDSV SAVING "    UZF RECHARGE" ON UNIT 52 AT TIME STEP  1, STRESS PERIOD    1
 UBUDSV SAVING " SURFACE LEAKAGE" ON UNIT 52 AT TIME STEP  1, STRESS PERIOD    1
 UBUDSV SAVING "       HORT+DUNN" ON UNIT 52 AT TIME STEP  1, STRESS PERIOD    1
 UBUDSV SAVING "  STORAGE CHANGE" ON UNIT 52 AT TIME STEP  1, STRESS PERIOD    1

 HEAD WILL BE SAVED ON UNIT   51 AT END OF TIME STEP    1, STRESS PERIOD    1
 
 SOLVING FOR HEAD 

    ------------------------------------------------
       NWT REQUIRED            1 OUTER ITERATIONS 
       AND A TOTAL OF          2 INNER ITERATIONS.
    ------------------------------------------------

 OUTPUT CONTROL FOR STRESS PERIOD    1   TIME STEP    2
    SAVE HEAD FOR ALL LAYERS
    SAVE BUDGET
 UBDSV1 SAVING "         STORAGE" ON UNIT  52 AT TIME STEP  2, STRESS PERIOD   1
 UBDSV2 SAVING "   CONSTANT HEAD" ON UNIT  52 AT TIME STEP  2, STRESS PERIOD   1
 UBDSV1 SAVING "FLOW RIGHT FACE " ON UNIT  52 AT TIME STEP  2, STRESS PERIOD   1
 UBDSV1 SAVING "FLOW FRONT FACE " ON UNIT  52 AT TIME STEP  2, STRESS PERIOD   1
 UBDSV4 SAVING "  STREAM LEAKAGE" ON UNIT  52 AT TIME STEP  2, STRESS PERIOD   1



 UBUDSV SAVING "           GW ET" ON UNIT 52 AT TIME STEP  2, STRESS PERIOD    1
 UBUDSV SAVING "    UZF RECHARGE" ON UNIT 52 AT TIME STEP  2, STRESS PERIOD    1
 UBUDSV SAVING " SURFACE LEAKAGE" ON UNIT 52 AT TIME STEP  2, STRESS PERIOD    1
 UBUDSV SAVING "       HORT+DUNN" ON UNIT 52 AT TIME STEP  2, STRESS PERIOD    1
 UBUDSV SAVING "  STORAGE CHANGE" ON UNIT 52 AT TIME STEP  2, STRESS PERIOD    1

 HEAD WILL BE SAVED ON UNIT   51 AT END OF TIME STEP    2, STRESS PERIOD    1
 
 SOLVING FOR HEAD 

    ------------------------------------------------
       NWT REQUIRED            1 OUTER ITERATIONS 
       AND A TOTAL OF          2 INNER ITERATIONS.
    ------------------------------------------------

 OUTPUT CONTROL FOR STRESS PERIOD    1   TIME STEP    3
    SAVE HEAD FOR ALL LAYERS
    SAVE BUDGET
 UBDSV1 SAVING "         STORAGE" ON UNIT  52 AT TIME STEP  3, STRESS PERIOD   1
 UBDSV2 SAVING "   CONSTANT HEAD" ON UNIT  52 AT TIME STEP  3, STRESS PERIOD   1
 UBDSV1 SAVING "FLOW RIGHT FACE " ON UNIT  52 AT TIME STEP  3, STRESS PERIOD   1
 UBDSV1 SAVING "FLOW FRONT FACE " ON UNIT  52 AT TIME STEP  3, STRESS PERIOD   1
 UBDSV4 SAVING "  STREAM LEAKAGE" ON UNIT  52 AT TIME STEP  3, STRESS PERIOD   1



 UBUDSV SAVING "           GW ET" ON UNIT 52 AT TIME STEP  3, STRESS PERIOD    1
 UBUDSV SAVING "    UZF RECHARGE" ON UNIT 52 AT TIME STEP  3, STRESS PERIOD    1
 UBUDSV SAVING " SURFACE LEAKAGE" ON UNIT 52 AT TIME STEP  3, STRESS PERIOD    1
 UBUDSV SAVING "       HORT+DUNN" ON UNIT 52 AT TIME STEP  3, STRESS PERIOD    1
 UBUDSV SAVING "  STORAGE CHANGE" ON UNIT 52 AT TIME STEP  3, STRESS PERIOD    1

 HEAD WILL BE SAVED ON UNIT   51 AT END OF TIME STEP    3, STRESS PERIOD    1
 
 SOLVING FOR HEAD 

    ------------------------------------------------
       NWT REQUIRED            1 OUTER ITERATIONS 
       AND A TOTAL OF          2 INNER ITERATIONS.
    ------------------------------------------------

 OUTPUT CONTROL FOR STRESS PERIOD    1   TIME STEP    4
    SAVE HEAD FOR ALL LAYERS
    SAVE BUDGET
 UBDSV1 SAVING "         STORAGE" ON UNIT  52 AT TIME STEP  4, STRESS PERIOD   1
 UBDSV2 SAVING "   CONSTANT HEAD" ON UNIT  52 AT TIME STEP  4, STRESS PERIOD   1
 UBDSV1 SAVING "FLOW RIGHT FACE " ON UNIT  52 AT TIME STEP  4, STRESS PERIOD   1
 UBDSV1 SAVING "FLOW FRONT FACE " ON UNIT  52 AT TIME STEP  4, STRESS PERIOD   1
 UBDSV4 SAVING "  STREAM LEAKAGE" ON UNIT  52 AT TIME STEP  4, STRESS PERIOD   1



 UBUDSV SAVING "           GW ET" ON UNIT 52 AT TIME STEP  4, STRESS PERIOD    1
 UBUDSV SAVING "    UZF RECHARGE" ON UNIT 52 AT TIME STEP  4, STRESS PERIOD    1
 UBUDSV SAVING " SURFACE LEAKAGE" ON UNIT 52 AT TIME STEP  4, STRESS PERIOD    1
 UBUDSV SAVING "       HORT+DUNN" ON UNIT 52 AT TIME STEP  4, STRESS PERIOD    1
 UBUDSV SAVING "  STORAGE CHANGE" ON UNIT 52 AT TIME STEP  4, STRESS PERIOD    1

 HEAD WILL BE SAVED ON UNIT   51 AT END OF TIME STEP    4, STRESS PERIOD    1
 
 SOLVING FOR HEAD 

    ------------------------------------------------
       NWT REQUIRED            1 OUTER ITERATIONS 
       AND A TOTAL OF          2 INNER ITERATIONS.
    ------------------------------------------------

 OUTPUT CONTROL FOR STRESS PERIOD    1   TIME STEP    5
    SAVE HEAD FOR ALL LAYERS
    SAVE BUDGET
 UBDSV1 SAVING "         STORAGE" ON UNIT  52 AT TIME STEP  5, STRESS PERIOD   1
 UBDSV2 SAVING "   CONSTANT HEAD" ON UNIT  52 AT TIME STEP  5, STRESS PERIOD   1
 UBDSV1 SAVING "FLOW RIGHT FACE " ON UNIT  52 AT TIME STEP  5, STRESS PERIOD   1
 UBDSV1 SAVING "FLOW FRONT FACE " ON UNIT  52 AT TIME STEP  5, STRESS PERIOD   1
 UBDSV4 SAVING "  STREAM LEAKAGE" ON UNIT  52 AT TIME STEP  5, STRESS PERIOD   1



 UBUDSV SAVING "           GW ET" ON UNIT 52 AT TIME STEP  5, STRESS PERIOD    1
 UBUDSV SAVING "    UZF RECHARGE" ON UNIT 52 AT TIME STEP  5, STRESS PERIOD    1
 UBUDSV SAVING " SURFACE LEAKAGE" ON UNIT 52 AT TIME STEP  5, STRESS PERIOD    1
 UBUDSV SAVING "       HORT+DUNN" ON UNIT 52 AT TIME STEP  5, STRESS PERIOD    1
 UBUDSV SAVING "  STORAGE CHANGE" ON UNIT 52 AT TIME STEP  5, STRESS PERIOD    1

 HEAD WILL BE SAVED ON UNIT   51 AT END OF TIME STEP    5, STRESS PERIOD    1
 
 SOLVING FOR HEAD 

    ------------------------------------------------
       NWT REQUIRED            1 OUTER ITERATIONS 
       AND A TOTAL OF          2 INNER ITERATIONS.
    ------------------------------------------------

 OUTPUT CONTROL FOR STRESS PERIOD    1   TIME STEP    6
    SAVE HEAD FOR ALL LAYERS
    SAVE BUDGET
 UBDSV1 SAVING "         STORAGE" ON UNIT  52 AT TIME STEP  6, STRESS PERIOD   1
 UBDSV2 SAVING "   CONSTANT HEAD" ON UNIT  52 AT TIME STEP  6, STRESS PERIOD   1
 UBDSV1 SAVING "FLOW RIGHT FACE " ON UNIT  52 AT TIME STEP  6, STRESS PERIOD   1
 UBDSV1 SAVING "FLOW FRONT FACE " ON UNIT  52 AT TIME STEP  6, STRESS PERIOD   1
 UBDSV4 SAVING "  STREAM LEAKAGE" ON UNIT  52 AT TIME STEP  6, STRESS PERIOD   1



 UBUDSV SAVING "           GW ET" ON UNIT 52 AT TIME STEP  6, STRESS PERIOD    1
 UBUDSV SAVING "    UZF RECHARGE" ON UNIT 52 AT TIME STEP  6, STRESS PERIOD    1
 UBUDSV SAVING " SURFACE LEAKAGE" ON UNIT 52 AT TIME STEP  6, STRESS PERIOD    1
 UBUDSV SAVING "       HORT+DUNN" ON UNIT 52 AT TIME STEP  6, STRESS PERIOD    1
 UBUDSV SAVING "  STORAGE CHANGE" ON UNIT 52 AT TIME STEP  6, STRESS PERIOD    1

 HEAD WILL BE SAVED ON UNIT   51 AT END OF TIME STEP    6, STRESS PERIOD    1
 
 SOLVING FOR HEAD 

    ------------------------------------------------
       NWT REQUIRED            1 OUTER ITERATIONS 
       AND A TOTAL OF          2 INNER ITERATIONS.
    ------------------------------------------------

 OUTPUT CONTROL FOR STRESS PERIOD    1   TIME STEP    7
    SAVE HEAD FOR ALL LAYERS
    SAVE BUDGET
 UBDSV1 SAVING "         STORAGE" ON UNIT  52 AT TIME STEP  7, STRESS PERIOD   1
 UBDSV2 SAVING "   CONSTANT HEAD" ON UNIT  52 AT TIME STEP  7, STRESS PERIOD   1
 UBDSV1 SAVING "FLOW RIGHT FACE " ON UNIT  52 AT TIME STEP  7, STRESS PERIOD   1
 UBDSV1 SAVING "FLOW FRONT FACE " ON UNIT  52 AT TIME STEP  7, STRESS PERIOD   1
 UBDSV4 SAVING "  STREAM LEAKAGE" ON UNIT  52 AT TIME STEP  7, STRESS PERIOD   1



 UBUDSV SAVING "           GW ET" ON UNIT 52 AT TIME STEP  7, STRESS PERIOD    1
 UBUDSV SAVING "    UZF RECHARGE" ON UNIT 52 AT TIME STEP  7, STRESS PERIOD    1
 UBUDSV SAVING " SURFACE LEAKAGE" ON UNIT 52 AT TIME STEP  7, STRESS PERIOD    1
 UBUDSV SAVING "       HORT+DUNN" ON UNIT 52 AT TIME STEP  7, STRESS PERIOD    1
 UBUDSV SAVING "  STORAGE CHANGE" ON UNIT 52 AT TIME STEP  7, STRESS PERIOD    1

 HEAD WILL BE SAVED ON UNIT   51 AT END OF TIME STEP    7, STRESS PERIOD    1
 
 SOLVING FOR HEAD 

    ------------------------------------------------
       NWT REQUIRED            1 OUTER ITERATIONS 
       AND A TOTAL OF          2 INNER ITERATIONS.
    ------------------------------------------------

 OUTPUT CONTROL FOR STRESS PERIOD    1   TIME STEP    8
    SAVE HEAD FOR ALL LAYERS
    SAVE BUDGET
 UBDSV1 SAVING "         STORAGE" ON UNIT  52 AT TIME STEP  8, STRESS PERIOD   1
 UBDSV2 SAVING "   CONSTANT HEAD" ON UNIT  52 AT TIME STEP  8, STRESS PERIOD   1
 UBDSV1 SAVING "FLOW RIGHT FACE " ON UNIT  52 AT TIME STEP  8, STRESS PERIOD   1
 UBDSV1 SAVING "FLOW FRONT FACE " ON UNIT  52 AT TIME STEP  8, STRESS PERIOD   1
 UBDSV4 SAVING "  STREAM LEAKAGE" ON UNIT  52 AT TIME STEP  8, STRESS PERIOD   1



 UBUDSV SAVING "           GW ET" ON UNIT 52 AT TIME STEP  8, STRESS PERIOD    1
 UBUDSV SAVING "    UZF RECHARGE" ON UNIT 52 AT TIME STEP  8, STRESS PERIOD    1
 UBUDSV SAVING " SURFACE LEAKAGE" ON UNIT 52 AT TIME STEP  8, STRESS PERIOD    1
 UBUDSV SAVING "       HORT+DUNN" ON UNIT 52 AT TIME STEP  8, STRESS PERIOD    1
 UBUDSV SAVING "  STORAGE CHANGE" ON UNIT 52 AT TIME STEP  8, STRESS PERIOD    1

 HEAD WILL BE SAVED ON UNIT   51 AT END OF TIME STEP    8, STRESS PERIOD    1
 
 SOLVING FOR HEAD 

    ------------------------------------------------
       NWT REQUIRED            1 OUTER ITERATIONS 
       AND A TOTAL OF          2 INNER ITERATIONS.
    ------------------------------------------------

 OUTPUT CONTROL FOR STRESS PERIOD    1   TIME STEP    9
    SAVE HEAD FOR ALL LAYERS
    SAVE BUDGET
 UBDSV1 SAVING "         STORAGE" ON UNIT  52 AT TIME STEP  9, STRESS PERIOD   1
 UBDSV2 SAVING "   CONSTANT HEAD" ON UNIT  52 AT TIME STEP  9, STRESS PERIOD   1
 UBDSV1 SAVING "FLOW RIGHT FACE " ON UNIT  52 AT TIME STEP  9, STRESS PERIOD   1
 UBDSV1 SAVING "FLOW FRONT FACE " ON UNIT  52 AT TIME STEP  9, STRESS PERIOD   1
 UBDSV4 SAVING "  STREAM LEAKAGE" ON UNIT  52 AT TIME STEP  9, STRESS PERIOD   1



 UBUDSV SAVING "           GW ET" ON UNIT 52 AT TIME STEP  9, STRESS PERIOD    1
 UBUDSV SAVING "    UZF RECHARGE" ON UNIT 52 AT TIME STEP  9, STRESS PERIOD    1
 UBUDSV SAVING " SURFACE LEAKAGE" ON UNIT 52 AT TIME STEP  9, STRESS PERIOD    1
 UBUDSV SAVING "       HORT+DUNN" ON UNIT 52 AT TIME STEP  9, STRESS PERIOD    1
 UBUDSV SAVING "  STORAGE CHANGE" ON UNIT 52 AT TIME STEP  9, STRESS PERIOD    1

 HEAD WILL BE SAVED ON UNIT   51 AT END OF TIME STEP    9, STRESS PERIOD    1
 
 SOLVING FOR HEAD 

    ------------------------------------------------
       NWT REQUIRED            1 OUTER ITERATIONS 
       AND A TOTAL OF          2 INNER ITERATIONS.
    ------------------------------------------------

 OUTPUT CONTROL FOR STRESS PERIOD    1   TIME STEP   10
    SAVE HEAD FOR ALL LAYERS
    SAVE BUDGET
 UBDSV1 SAVING "         STORAGE" ON UNIT  52 AT TIME STEP 10, STRESS PERIOD   1
 UBDSV2 SAVING "   CONSTANT HEAD" ON UNIT  52 AT TIME STEP 10, STRESS PERIOD   1
 UBDSV1 SAVING "FLOW RIGHT FACE " ON UNIT  52 AT TIME STEP 10, STRESS PERIOD   1
 UBDSV1 SAVING "FLOW FRONT FACE " ON UNIT  52 AT TIME STEP 10, STRESS PERIOD   1
 UBDSV4 SAVING "  STREAM LEAKAGE" ON UNIT  52 AT TIME STEP 10, STRESS PERIOD   1



 UBUDSV SAVING "           GW ET" ON UNIT 52 AT TIME STEP 10, STRESS PERIOD    1
 UBUDSV SAVING "    UZF RECHARGE" ON UNIT 52 AT TIME STEP 10, STRESS PERIOD    1
 UBUDSV SAVING " SURFACE LEAKAGE" ON UNIT 52 AT TIME STEP 10, STRESS PERIOD    1
 UBUDSV SAVING "       HORT+DUNN" ON UNIT 52 AT TIME STEP 10, STRESS PERIOD    1
 UBUDSV SAVING "  STORAGE CHANGE" ON UNIT 52 AT TIME STEP 10, STRESS PERIOD    1

 HEAD WILL BE SAVED ON UNIT   51 AT END OF TIME STEP   10, STRESS PERIOD    1
 
 SOLVING FOR HEAD 

    ------------------------------------------------
       NWT REQUIRED            1 OUTER ITERATIONS 
       AND A TOTAL OF          2 INNER ITERATIONS.
    ------------------------------------------------

 OUTPUT CONTROL FOR STRESS PERIOD    1   TIME STEP   11
    SAVE HEAD FOR ALL LAYERS
    SAVE BUDGET
 UBDSV1 SAVING "         STORAGE" ON UNIT  52 AT TIME STEP 11, STRESS PERIOD   1
 UBDSV2 SAVING "   CONSTANT HEAD" ON UNIT  52 AT TIME STEP 11, STRESS PERIOD   1
 UBDSV1 SAVING "FLOW RIGHT FACE " ON UNIT  52 AT TIME STEP 11, STRESS PERIOD   1
 UBDSV1 SAVING "FLOW FRONT FACE " ON UNIT  52 AT TIME STEP 11, STRESS PERIOD   1
 UBDSV4 SAVING "  STREAM LEAKAGE" ON UNIT  52 AT TIME STEP 11, STRESS PERIOD   1



 UBUDSV SAVING "           GW ET" ON UNIT 52 AT TIME STEP 11, STRESS PERIOD    1
 UBUDSV SAVING "    UZF RECHARGE" ON UNIT 52 AT TIME STEP 11, STRESS PERIOD    1
 UBUDSV SAVING " SURFACE LEAKAGE" ON UNIT 52 AT TIME STEP 11, STRESS PERIOD    1
 UBUDSV SAVING "       HORT+DUNN" ON UNIT 52 AT TIME STEP 11, STRESS PERIOD    1
 UBUDSV SAVING "  STORAGE CHANGE" ON UNIT 52 AT TIME STEP 11, STRESS PERIOD    1

 HEAD WILL BE SAVED ON UNIT   51 AT END OF TIME STEP   11, STRESS PERIOD    1
 
 SOLVING FOR HEAD 

    ------------------------------------------------
       NWT REQUIRED            1 OUTER ITERATIONS 
       AND A TOTAL OF          2 INNER ITERATIONS.
    ------------------------------------------------

 OUTPUT CONTROL FOR STRESS PERIOD    1   TIME STEP   12
    SAVE HEAD FOR ALL LAYERS
    SAVE BUDGET
 UBDSV1 SAVING "         STORAGE" ON UNIT  52 AT TIME STEP 12, STRESS PERIOD   1
 UBDSV2 SAVING "   CONSTANT HEAD" ON UNIT  52 AT TIME STEP 12, STRESS PERIOD   1
 UBDSV1 SAVING "FLOW RIGHT FACE " ON UNIT  52 AT TIME STEP 12, STRESS PERIOD   1
 UBDSV1 SAVING "FLOW FRONT FACE " ON UNIT  52 AT TIME STEP 12, STRESS PERIOD   1
 UBDSV4 SAVING "  STREAM LEAKAGE" ON UNIT  52 AT TIME STEP 12, STRESS PERIOD   1



 UBUDSV SAVING "           GW ET" ON UNIT 52 AT TIME STEP 12, STRESS PERIOD    1
 UBUDSV SAVING "    UZF RECHARGE" ON UNIT 52 AT TIME STEP 12, STRESS PERIOD    1
 UBUDSV SAVING " SURFACE LEAKAGE" ON UNIT 52 AT TIME STEP 12, STRESS PERIOD    1
 UBUDSV SAVING "       HORT+DUNN" ON UNIT 52 AT TIME STEP 12, STRESS PERIOD    1
 UBUDSV SAVING "  STORAGE CHANGE" ON UNIT 52 AT TIME STEP 12, STRESS PERIOD    1

 HEAD WILL BE SAVED ON UNIT   51 AT END OF TIME STEP   12, STRESS PERIOD    1
 
 SOLVING FOR HEAD 

    ------------------------------------------------
       NWT REQUIRED            1 OUTER ITERATIONS 
       AND A TOTAL OF          2 INNER ITERATIONS.
    ------------------------------------------------

 OUTPUT CONTROL FOR STRESS PERIOD    1   TIME STEP   13
    SAVE HEAD FOR ALL LAYERS
    SAVE BUDGET
 UBDSV1 SAVING "         STORAGE" ON UNIT  52 AT TIME STEP 13, STRESS PERIOD   1
 UBDSV2 SAVING "   CONSTANT HEAD" ON UNIT  52 AT TIME STEP 13, STRESS PERIOD   1
 UBDSV1 SAVING "FLOW RIGHT FACE " ON UNIT  52 AT TIME STEP 13, STRESS PERIOD   1
 UBDSV1 SAVING "FLOW FRONT FACE " ON UNIT  52 AT TIME STEP 13, STRESS PERIOD   1
 UBDSV4 SAVING "  STREAM LEAKAGE" ON UNIT  52 AT TIME STEP 13, STRESS PERIOD   1



 UBUDSV SAVING "           GW ET" ON UNIT 52 AT TIME STEP 13, STRESS PERIOD    1
 UBUDSV SAVING "    UZF RECHARGE" ON UNIT 52 AT TIME STEP 13, STRESS PERIOD    1
 UBUDSV SAVING " SURFACE LEAKAGE" ON UNIT 52 AT TIME STEP 13, STRESS PERIOD    1
 UBUDSV SAVING "       HORT+DUNN" ON UNIT 52 AT TIME STEP 13, STRESS PERIOD    1
 UBUDSV SAVING "  STORAGE CHANGE" ON UNIT 52 AT TIME STEP 13, STRESS PERIOD    1

 HEAD WILL BE SAVED ON UNIT   51 AT END OF TIME STEP   13, STRESS PERIOD    1
 
 SOLVING FOR HEAD 

    ------------------------------------------------
       NWT REQUIRED            1 OUTER ITERATIONS 
       AND A TOTAL OF          2 INNER ITERATIONS.
    ------------------------------------------------

 OUTPUT CONTROL FOR STRESS PERIOD    1   TIME STEP   14
    SAVE HEAD FOR ALL LAYERS
    SAVE BUDGET
 UBDSV1 SAVING "         STORAGE" ON UNIT  52 AT TIME STEP 14, STRESS PERIOD   1
 UBDSV2 SAVING "   CONSTANT HEAD" ON UNIT  52 AT TIME STEP 14, STRESS PERIOD   1
 UBDSV1 SAVING "FLOW RIGHT FACE " ON UNIT  52 AT TIME STEP 14, STRESS PERIOD   1
 UBDSV1 SAVING "FLOW FRONT FACE " ON UNIT  52 AT TIME STEP 14, STRESS PERIOD   1
 UBDSV4 SAVING "  STREAM LEAKAGE" ON UNIT  52 AT TIME STEP 14, STRESS PERIOD   1



 UBUDSV SAVING "           GW ET" ON UNIT 52 AT TIME STEP 14, STRESS PERIOD    1
 UBUDSV SAVING "    UZF RECHARGE" ON UNIT 52 AT TIME STEP 14, STRESS PERIOD    1
 UBUDSV SAVING " SURFACE LEAKAGE" ON UNIT 52 AT TIME STEP 14, STRESS PERIOD    1
 UBUDSV SAVING "       HORT+DUNN" ON UNIT 52 AT TIME STEP 14, STRESS PERIOD    1
 UBUDSV SAVING "  STORAGE CHANGE" ON UNIT 52 AT TIME STEP 14, STRESS PERIOD    1

 HEAD WILL BE SAVED ON UNIT   51 AT END OF TIME STEP   14, STRESS PERIOD    1
 
 SOLVING FOR HEAD 

    ------------------------------------------------
       NWT REQUIRED            1 OUTER ITERATIONS 
       AND A TOTAL OF          2 INNER ITERATIONS.
    ------------------------------------------------

 OUTPUT CONTROL FOR STRESS PERIOD    1   TIME STEP   15
    SAVE HEAD FOR ALL LAYERS
    SAVE BUDGET
 UBDSV1 SAVING "         STORAGE" ON UNIT  52 AT TIME STEP 15, STRESS PERIOD   1
 UBDSV2 SAVING "   CONSTANT HEAD" ON UNIT  52 AT TIME STEP 15, STRESS PERIOD   1
 UBDSV1 SAVING "FLOW RIGHT FACE " ON UNIT  52 AT TIME STEP 15, STRESS PERIOD   1
 UBDSV1 SAVING "FLOW FRONT FACE " ON UNIT  52 AT TIME STEP 15, STRESS PERIOD   1
 UBDSV4 SAVING "  STREAM LEAKAGE" ON UNIT  52 AT TIME STEP 15, STRESS PERIOD   1



 UBUDSV SAVING "           GW ET" ON UNIT 52 AT TIME STEP 15, STRESS PERIOD    1
 UBUDSV SAVING "    UZF RECHARGE" ON UNIT 52 AT TIME STEP 15, STRESS PERIOD    1
 UBUDSV SAVING " SURFACE LEAKAGE" ON UNIT 52 AT TIME STEP 15, STRESS PERIOD    1
 UBUDSV SAVING "       HORT+DUNN" ON UNIT 52 AT TIME STEP 15, STRESS PERIOD    1
 UBUDSV SAVING "  STORAGE CHANGE" ON UNIT 52 AT TIME STEP 15, STRESS PERIOD    1

 HEAD WILL BE SAVED ON UNIT   51 AT END OF TIME STEP   15, STRESS PERIOD    1
 
 SOLVING FOR HEAD 

    ------------------------------------------------
       NWT REQUIRED            1 OUTER ITERATIONS 
       AND A TOTAL OF          2 INNER ITERATIONS.
    ------------------------------------------------

 OUTPUT CONTROL FOR STRESS PERIOD    1   TIME STEP   16
    SAVE HEAD FOR ALL LAYERS
    SAVE BUDGET
 UBDSV1 SAVING "         STORAGE" ON UNIT  52 AT TIME STEP 16, STRESS PERIOD   1
 UBDSV2 SAVING "   CONSTANT HEAD" ON UNIT  52 AT TIME STEP 16, STRESS PERIOD   1
 UBDSV1 SAVING "FLOW RIGHT FACE " ON UNIT  52 AT TIME STEP 16, STRESS PERIOD   1
 UBDSV1 SAVING "FLOW FRONT FACE " ON UNIT  52 AT TIME STEP 16, STRESS PERIOD   1
 UBDSV4 SAVING "  STREAM LEAKAGE" ON UNIT  52 AT TIME STEP 16, STRESS PERIOD   1



 UBUDSV SAVING "           GW ET" ON UNIT 52 AT TIME STEP 16, STRESS PERIOD    1
 UBUDSV SAVING "    UZF RECHARGE" ON UNIT 52 AT TIME STEP 16, STRESS PERIOD    1
 UBUDSV SAVING " SURFACE LEAKAGE" ON UNIT 52 AT TIME STEP 16, STRESS PERIOD    1
 UBUDSV SAVING "       HORT+DUNN" ON UNIT 52 AT TIME STEP 16, STRESS PERIOD    1
 UBUDSV SAVING "  STORAGE CHANGE" ON UNIT 52 AT TIME STEP 16, STRESS PERIOD    1

 HEAD WILL BE SAVED ON UNIT   51 AT END OF TIME STEP   16, STRESS PERIOD    1
 
 SOLVING FOR HEAD 

    ------------------------------------------------
       NWT REQUIRED            1 OUTER ITERATIONS 
       AND A TOTAL OF          2 INNER ITERATIONS.
    ------------------------------------------------

 OUTPUT CONTROL FOR STRESS PERIOD    1   TIME STEP   17
    SAVE HEAD FOR ALL LAYERS
    SAVE BUDGET
 UBDSV1 SAVING "         STORAGE" ON UNIT  52 AT TIME STEP 17, STRESS PERIOD   1
 UBDSV2 SAVING "   CONSTANT HEAD" ON UNIT  52 AT TIME STEP 17, STRESS PERIOD   1
 UBDSV1 SAVING "FLOW RIGHT FACE " ON UNIT  52 AT TIME STEP 17, STRESS PERIOD   1
 UBDSV1 SAVING "FLOW FRONT FACE " ON UNIT  52 AT TIME STEP 17, STRESS PERIOD   1
 UBDSV4 SAVING "  STREAM LEAKAGE" ON UNIT  52 AT TIME STEP 17, STRESS PERIOD   1



 UBUDSV SAVING "           GW ET" ON UNIT 52 AT TIME STEP 17, STRESS PERIOD    1
 UBUDSV SAVING "    UZF RECHARGE" ON UNIT 52 AT TIME STEP 17, STRESS PERIOD    1
 UBUDSV SAVING " SURFACE LEAKAGE" ON UNIT 52 AT TIME STEP 17, STRESS PERIOD    1
 UBUDSV SAVING "       HORT+DUNN" ON UNIT 52 AT TIME STEP 17, STRESS PERIOD    1
 UBUDSV SAVING "  STORAGE CHANGE" ON UNIT 52 AT TIME STEP 17, STRESS PERIOD    1

 HEAD WILL BE SAVED ON UNIT   51 AT END OF TIME STEP   17, STRESS PERIOD    1
 
 SOLVING FOR HEAD 

    ------------------------------------------------
       NWT REQUIRED            1 OUTER ITERATIONS 
       AND A TOTAL OF          2 INNER ITERATIONS.
    ------------------------------------------------

 OUTPUT CONTROL FOR STRESS PERIOD    1   TIME STEP   18
    SAVE HEAD FOR ALL LAYERS
    SAVE BUDGET
 UBDSV1 SAVING "         STORAGE" ON UNIT  52 AT TIME STEP 18, STRESS PERIOD   1
 UBDSV2 SAVING "   CONSTANT HEAD" ON UNIT  52 AT TIME STEP 18, STRESS PERIOD   1
 UBDSV1 SAVING "FLOW RIGHT FACE " ON UNIT  52 AT TIME STEP 18, STRESS PERIOD   1
 UBDSV1 SAVING "FLOW FRONT FACE " ON UNIT  52 AT TIME STEP 18, STRESS PERIOD   1
 UBDSV4 SAVING "  STREAM LEAKAGE" ON UNIT  52 AT TIME STEP 18, STRESS PERIOD   1



 UBUDSV SAVING "           GW ET" ON UNIT 52 AT TIME STEP 18, STRESS PERIOD    1
 UBUDSV SAVING "    UZF RECHARGE" ON UNIT 52 AT TIME STEP 18, STRESS PERIOD    1
 UBUDSV SAVING " SURFACE LEAKAGE" ON UNIT 52 AT TIME STEP 18, STRESS PERIOD    1
 UBUDSV SAVING "       HORT+DUNN" ON UNIT 52 AT TIME STEP 18, STRESS PERIOD    1
 UBUDSV SAVING "  STORAGE CHANGE" ON UNIT 52 AT TIME STEP 18, STRESS PERIOD    1

 HEAD WILL BE SAVED ON UNIT   51 AT END OF TIME STEP   18, STRESS PERIOD    1
 
 SOLVING FOR HEAD 

    ------------------------------------------------
       NWT REQUIRED            1 OUTER ITERATIONS 
       AND A TOTAL OF          2 INNER ITERATIONS.
    ------------------------------------------------

 OUTPUT CONTROL FOR STRESS PERIOD    1   TIME STEP   19
    SAVE HEAD FOR ALL LAYERS
    SAVE BUDGET
 UBDSV1 SAVING "         STORAGE" ON UNIT  52 AT TIME STEP 19, STRESS PERIOD   1
 UBDSV2 SAVING "   CONSTANT HEAD" ON UNIT  52 AT TIME STEP 19, STRESS PERIOD   1
 UBDSV1 SAVING "FLOW RIGHT FACE " ON UNIT  52 AT TIME STEP 19, STRESS PERIOD   1
 UBDSV1 SAVING "FLOW FRONT FACE " ON UNIT  52 AT TIME STEP 19, STRESS PERIOD   1
 UBDSV4 SAVING "  STREAM LEAKAGE" ON UNIT  52 AT TIME STEP 19, STRESS PERIOD   1



 UBUDSV SAVING "           GW ET" ON UNIT 52 AT TIME STEP 19, STRESS PERIOD    1
 UBUDSV SAVING "    UZF RECHARGE" ON UNIT 52 AT TIME STEP 19, STRESS PERIOD    1
 UBUDSV SAVING " SURFACE LEAKAGE" ON UNIT 52 AT TIME STEP 19, STRESS PERIOD    1
 UBUDSV SAVING "       HORT+DUNN" ON UNIT 52 AT TIME STEP 19, STRESS PERIOD    1
 UBUDSV SAVING "  STORAGE CHANGE" ON UNIT 52 AT TIME STEP 19, STRESS PERIOD    1

 HEAD WILL BE SAVED ON UNIT   51 AT END OF TIME STEP   19, STRESS PERIOD    1
 
 SOLVING FOR HEAD 

    ------------------------------------------------
       NWT REQUIRED            1 OUTER ITERATIONS 
       AND A TOTAL OF          2 INNER ITERATIONS.
    ------------------------------------------------

 OUTPUT CONTROL FOR STRESS PERIOD    1   TIME STEP   20
    SAVE HEAD FOR ALL LAYERS
    SAVE BUDGET
 UBDSV1 SAVING "         STORAGE" ON UNIT  52 AT TIME STEP 20, STRESS PERIOD   1
 UBDSV2 SAVING "   CONSTANT HEAD" ON UNIT  52 AT TIME STEP 20, STRESS PERIOD   1
 UBDSV1 SAVING "FLOW RIGHT FACE " ON UNIT  52 AT TIME STEP 20, STRESS PERIOD   1
 UBDSV1 SAVING "FLOW FRONT FACE " ON UNIT  52 AT TIME STEP 20, STRESS PERIOD   1
 UBDSV4 SAVING "  STREAM LEAKAGE" ON UNIT  52 AT TIME STEP 20, STRESS PERIOD   1



 UBUDSV SAVING "           GW ET" ON UNIT 52 AT TIME STEP 20, STRESS PERIOD    1
 UBUDSV SAVING "    UZF RECHARGE" ON UNIT 52 AT TIME STEP 20, STRESS PERIOD    1
 UBUDSV SAVING " SURFACE LEAKAGE" ON UNIT 52 AT TIME STEP 20, STRESS PERIOD    1
 UBUDSV SAVING "       HORT+DUNN" ON UNIT 52 AT TIME STEP 20, STRESS PERIOD    1
 UBUDSV SAVING "  STORAGE CHANGE" ON UNIT 52 AT TIME STEP 20, STRESS PERIOD    1

 HEAD WILL BE SAVED ON UNIT   51 AT END OF TIME STEP   20, STRESS PERIOD    1
 
 SOLVING FOR HEAD 

    ------------------------------------------------
       NWT REQUIRED            1 OUTER ITERATIONS 
       AND A TOTAL OF          2 INNER ITERATIONS.
    ------------------------------------------------

 OUTPUT CONTROL FOR STRESS PERIOD    1   TIME STEP   21
    SAVE HEAD FOR ALL LAYERS
    SAVE BUDGET
 UBDSV1 SAVING "         STORAGE" ON UNIT  52 AT TIME STEP 21, STRESS PERIOD   1
 UBDSV2 SAVING "   CONSTANT HEAD" ON UNIT  52 AT TIME STEP 21, STRESS PERIOD   1
 UBDSV1 SAVING "FLOW RIGHT FACE " ON UNIT  52 AT TIME STEP 21, STRESS PERIOD   1
 UBDSV1 SAVING "FLOW FRONT FACE " ON UNIT  52 AT TIME STEP 21, STRESS PERIOD   1
 UBDSV4 SAVING "  STREAM LEAKAGE" ON UNIT  52 AT TIME STEP 21, STRESS PERIOD   1



 UBUDSV SAVING "           GW ET" ON UNIT 52 AT TIME STEP 21, STRESS PERIOD    1
 UBUDSV SAVING "    UZF RECHARGE" ON UNIT 52 AT TIME STEP 21, STRESS PERIOD    1
 UBUDSV SAVING " SURFACE LEAKAGE" ON UNIT 52 AT TIME STEP 21, STRESS PERIOD    1
 UBUDSV SAVING "       HORT+DUNN" ON UNIT 52 AT TIME STEP 21, STRESS PERIOD    1
 UBUDSV SAVING "  STORAGE CHANGE" ON UNIT 52 AT TIME STEP 21, STRESS PERIOD    1

 HEAD WILL BE SAVED ON UNIT   51 AT END OF TIME STEP   21, STRESS PERIOD    1
 
 SOLVING FOR HEAD 

    ------------------------------------------------
       NWT REQUIRED            1 OUTER ITERATIONS 
       AND A TOTAL OF          2 INNER ITERATIONS.
    ------------------------------------------------

 OUTPUT CONTROL FOR STRESS PERIOD    1   TIME STEP   22
    SAVE HEAD FOR ALL LAYERS
    SAVE BUDGET
 UBDSV1 SAVING "         STORAGE" ON UNIT  52 AT TIME STEP 22, STRESS PERIOD   1
 UBDSV2 SAVING "   CONSTANT HEAD" ON UNIT  52 AT TIME STEP 22, STRESS PERIOD   1
 UBDSV1 SAVING "FLOW RIGHT FACE " ON UNIT  52 AT TIME STEP 22, STRESS PERIOD   1
 UBDSV1 SAVING "FLOW FRONT FACE " ON UNIT  52 AT TIME STEP 22, STRESS PERIOD   1
 UBDSV4 SAVING "  STREAM LEAKAGE" ON UNIT  52 AT TIME STEP 22, STRESS PERIOD   1



 UBUDSV SAVING "           GW ET" ON UNIT 52 AT TIME STEP 22, STRESS PERIOD    1
 UBUDSV SAVING "    UZF RECHARGE" ON UNIT 52 AT TIME STEP 22, STRESS PERIOD    1
 UBUDSV SAVING " SURFACE LEAKAGE" ON UNIT 52 AT TIME STEP 22, STRESS PERIOD    1
 UBUDSV SAVING "       HORT+DUNN" ON UNIT 52 AT TIME STEP 22, STRESS PERIOD    1
 UBUDSV SAVING "  STORAGE CHANGE" ON UNIT 52 AT TIME STEP 22, STRESS PERIOD    1

 HEAD WILL BE SAVED ON UNIT   51 AT END OF TIME STEP   22, STRESS PERIOD    1
 
 SOLVING FOR HEAD 

    ------------------------------------------------
       NWT REQUIRED            1 OUTER ITERATIONS 
       AND A TOTAL OF          2 INNER ITERATIONS.
    ------------------------------------------------

 OUTPUT CONTROL FOR STRESS PERIOD    1   TIME STEP   23
    SAVE HEAD FOR ALL LAYERS
    SAVE BUDGET
 UBDSV1 SAVING "         STORAGE" ON UNIT  52 AT TIME STEP 23, STRESS PERIOD   1
 UBDSV2 SAVING "   CONSTANT HEAD" ON UNIT  52 AT TIME STEP 23, STRESS PERIOD   1
 UBDSV1 SAVING "FLOW RIGHT FACE " ON UNIT  52 AT TIME STEP 23, STRESS PERIOD   1
 UBDSV1 SAVING "FLOW FRONT FACE " ON UNIT  52 AT TIME STEP 23, STRESS PERIOD   1
 UBDSV4 SAVING "  STREAM LEAKAGE" ON UNIT  52 AT TIME STEP 23, STRESS PERIOD   1



 UBUDSV SAVING "           GW ET" ON UNIT 52 AT TIME STEP 23, STRESS PERIOD    1
 UBUDSV SAVING "    UZF RECHARGE" ON UNIT 52 AT TIME STEP 23, STRESS PERIOD    1
 UBUDSV SAVING " SURFACE LEAKAGE" ON UNIT 52 AT TIME STEP 23, STRESS PERIOD    1
 UBUDSV SAVING "       HORT+DUNN" ON UNIT 52 AT TIME STEP 23, STRESS PERIOD    1
 UBUDSV SAVING "  STORAGE CHANGE" ON UNIT 52 AT TIME STEP 23, STRESS PERIOD    1

 HEAD WILL BE SAVED ON UNIT   51 AT END OF TIME STEP   23, STRESS PERIOD    1
 
 SOLVING FOR HEAD 

    ------------------------------------------------
       NWT REQUIRED            1 OUTER ITERATIONS 
       AND A TOTAL OF          2 INNER ITERATIONS.
    ------------------------------------------------

 OUTPUT CONTROL FOR STRESS PERIOD    1   TIME STEP   24
    SAVE HEAD FOR ALL LAYERS
    SAVE BUDGET
 UBDSV1 SAVING "         STORAGE" ON UNIT  52 AT TIME STEP 24, STRESS PERIOD   1
 UBDSV2 SAVING "   CONSTANT HEAD" ON UNIT  52 AT TIME STEP 24, STRESS PERIOD   1
 UBDSV1 SAVING "FLOW RIGHT FACE " ON UNIT  52 AT TIME STEP 24, STRESS PERIOD   1
 UBDSV1 SAVING "FLOW FRONT FACE " ON UNIT  52 AT TIME STEP 24, STRESS PERIOD   1
 UBDSV4 SAVING "  STREAM LEAKAGE" ON UNIT  52 AT TIME STEP 24, STRESS PERIOD   1



 UBUDSV SAVING "           GW ET" ON UNIT 52 AT TIME STEP 24, STRESS PERIOD    1
 UBUDSV SAVING "    UZF RECHARGE" ON UNIT 52 AT TIME STEP 24, STRESS PERIOD    1
 UBUDSV SAVING " SURFACE LEAKAGE" ON UNIT 52 AT TIME STEP 24, STRESS PERIOD    1
 UBUDSV SAVING "       HORT+DUNN" ON UNIT 52 AT TIME STEP 24, STRESS PERIOD    1
 UBUDSV SAVING "  STORAGE CHANGE" ON UNIT 52 AT TIME STEP 24, STRESS PERIOD    1

 HEAD WILL BE SAVED ON UNIT   51 AT END OF TIME STEP   24, STRESS PERIOD    1
 
 SOLVING FOR HEAD 

    ------------------------------------------------
       NWT REQUIRED            1 OUTER ITERATIONS 
       AND A TOTAL OF          2 INNER ITERATIONS.
    ------------------------------------------------

 OUTPUT CONTROL FOR STRESS PERIOD    1   TIME STEP   25
    SAVE HEAD FOR ALL LAYERS
    SAVE BUDGET
 UBDSV1 SAVING "         STORAGE" ON UNIT  52 AT TIME STEP 25, STRESS PERIOD   1
 UBDSV2 SAVING "   CONSTANT HEAD" ON UNIT  52 AT TIME STEP 25, STRESS PERIOD   1
 UBDSV1 SAVING "FLOW RIGHT FACE " ON UNIT  52 AT TIME STEP 25, STRESS PERIOD   1
 UBDSV1 SAVING "FLOW FRONT FACE " ON UNIT  52 AT TIME STEP 25, STRESS PERIOD   1
 UBDSV4 SAVING "  STREAM LEAKAGE" ON UNIT  52 AT TIME STEP 25, STRESS PERIOD   1



 UBUDSV SAVING "           GW ET" ON UNIT 52 AT TIME STEP 25, STRESS PERIOD    1
 UBUDSV SAVING "    UZF RECHARGE" ON UNIT 52 AT TIME STEP 25, STRESS PERIOD    1
 UBUDSV SAVING " SURFACE LEAKAGE" ON UNIT 52 AT TIME STEP 25, STRESS PERIOD    1
 UBUDSV SAVING "       HORT+DUNN" ON UNIT 52 AT TIME STEP 25, STRESS PERIOD    1
 UBUDSV SAVING "  STORAGE CHANGE" ON UNIT 52 AT TIME STEP 25, STRESS PERIOD    1

 HEAD WILL BE SAVED ON UNIT   51 AT END OF TIME STEP   25, STRESS PERIOD    1
 
 SOLVING FOR HEAD 

    ------------------------------------------------
       NWT REQUIRED            1 OUTER ITERATIONS 
       AND A TOTAL OF          2 INNER ITERATIONS.
    ------------------------------------------------

 OUTPUT CONTROL FOR STRESS PERIOD    1   TIME STEP   26
    SAVE HEAD FOR ALL LAYERS
    SAVE BUDGET
 UBDSV1 SAVING "         STORAGE" ON UNIT  52 AT TIME STEP 26, STRESS PERIOD   1
 UBDSV2 SAVING "   CONSTANT HEAD" ON UNIT  52 AT TIME STEP 26, STRESS PERIOD   1
 UBDSV1 SAVING "FLOW RIGHT FACE " ON UNIT  52 AT TIME STEP 26, STRESS PERIOD   1
 UBDSV1 SAVING "FLOW FRONT FACE " ON UNIT  52 AT TIME STEP 26, STRESS PERIOD   1
 UBDSV4 SAVING "  STREAM LEAKAGE" ON UNIT  52 AT TIME STEP 26, STRESS PERIOD   1



 UBUDSV SAVING "           GW ET" ON UNIT 52 AT TIME STEP 26, STRESS PERIOD    1
 UBUDSV SAVING "    UZF RECHARGE" ON UNIT 52 AT TIME STEP 26, STRESS PERIOD    1
 UBUDSV SAVING " SURFACE LEAKAGE" ON UNIT 52 AT TIME STEP 26, STRESS PERIOD    1
 UBUDSV SAVING "       HORT+DUNN" ON UNIT 52 AT TIME STEP 26, STRESS PERIOD    1
 UBUDSV SAVING "  STORAGE CHANGE" ON UNIT 52 AT TIME STEP 26, STRESS PERIOD    1

 HEAD WILL BE SAVED ON UNIT   51 AT END OF TIME STEP   26, STRESS PERIOD    1
 
 SOLVING FOR HEAD 

    ------------------------------------------------
       NWT REQUIRED            1 OUTER ITERATIONS 
       AND A TOTAL OF          2 INNER ITERATIONS.
    ------------------------------------------------

 OUTPUT CONTROL FOR STRESS PERIOD    1   TIME STEP   27
    SAVE HEAD FOR ALL LAYERS
    SAVE BUDGET
 UBDSV1 SAVING "         STORAGE" ON UNIT  52 AT TIME STEP 27, STRESS PERIOD   1
 UBDSV2 SAVING "   CONSTANT HEAD" ON UNIT  52 AT TIME STEP 27, STRESS PERIOD   1
 UBDSV1 SAVING "FLOW RIGHT FACE " ON UNIT  52 AT TIME STEP 27, STRESS PERIOD   1
 UBDSV1 SAVING "FLOW FRONT FACE " ON UNIT  52 AT TIME STEP 27, STRESS PERIOD   1
 UBDSV4 SAVING "  STREAM LEAKAGE" ON UNIT  52 AT TIME STEP 27, STRESS PERIOD   1



 UBUDSV SAVING "           GW ET" ON UNIT 52 AT TIME STEP 27, STRESS PERIOD    1
 UBUDSV SAVING "    UZF RECHARGE" ON UNIT 52 AT TIME STEP 27, STRESS PERIOD    1
 UBUDSV SAVING " SURFACE LEAKAGE" ON UNIT 52 AT TIME STEP 27, STRESS PERIOD    1
 UBUDSV SAVING "       HORT+DUNN" ON UNIT 52 AT TIME STEP 27, STRESS PERIOD    1
 UBUDSV SAVING "  STORAGE CHANGE" ON UNIT 52 AT TIME STEP 27, STRESS PERIOD    1

 HEAD WILL BE SAVED ON UNIT   51 AT END OF TIME STEP   27, STRESS PERIOD    1
 
 SOLVING FOR HEAD 

    ------------------------------------------------
       NWT REQUIRED            1 OUTER ITERATIONS 
       AND A TOTAL OF          2 INNER ITERATIONS.
    ------------------------------------------------

 OUTPUT CONTROL FOR STRESS PERIOD    1   TIME STEP   28
    SAVE HEAD FOR ALL LAYERS
    SAVE BUDGET
 UBDSV1 SAVING "         STORAGE" ON UNIT  52 AT TIME STEP 28, STRESS PERIOD   1
 UBDSV2 SAVING "   CONSTANT HEAD" ON UNIT  52 AT TIME STEP 28, STRESS PERIOD   1
 UBDSV1 SAVING "FLOW RIGHT FACE " ON UNIT  52 AT TIME STEP 28, STRESS PERIOD   1
 UBDSV1 SAVING "FLOW FRONT FACE " ON UNIT  52 AT TIME STEP 28, STRESS PERIOD   1
 UBDSV4 SAVING "  STREAM LEAKAGE" ON UNIT  52 AT TIME STEP 28, STRESS PERIOD   1



 UBUDSV SAVING "           GW ET" ON UNIT 52 AT TIME STEP 28, STRESS PERIOD    1
 UBUDSV SAVING "    UZF RECHARGE" ON UNIT 52 AT TIME STEP 28, STRESS PERIOD    1
 UBUDSV SAVING " SURFACE LEAKAGE" ON UNIT 52 AT TIME STEP 28, STRESS PERIOD    1
 UBUDSV SAVING "       HORT+DUNN" ON UNIT 52 AT TIME STEP 28, STRESS PERIOD    1
 UBUDSV SAVING "  STORAGE CHANGE" ON UNIT 52 AT TIME STEP 28, STRESS PERIOD    1

 HEAD WILL BE SAVED ON UNIT   51 AT END OF TIME STEP   28, STRESS PERIOD    1
 
 SOLVING FOR HEAD 

    ------------------------------------------------
       NWT REQUIRED            1 OUTER ITERATIONS 
       AND A TOTAL OF          2 INNER ITERATIONS.
    ------------------------------------------------

 OUTPUT CONTROL FOR STRESS PERIOD    1   TIME STEP   29
    SAVE HEAD FOR ALL LAYERS
    SAVE BUDGET
 UBDSV1 SAVING "         STORAGE" ON UNIT  52 AT TIME STEP 29, STRESS PERIOD   1
 UBDSV2 SAVING "   CONSTANT HEAD" ON UNIT  52 AT TIME STEP 29, STRESS PERIOD   1
 UBDSV1 SAVING "FLOW RIGHT FACE " ON UNIT  52 AT TIME STEP 29, STRESS PERIOD   1
 UBDSV1 SAVING "FLOW FRONT FACE " ON UNIT  52 AT TIME STEP 29, STRESS PERIOD   1
 UBDSV4 SAVING "  STREAM LEAKAGE" ON UNIT  52 AT TIME STEP 29, STRESS PERIOD   1



 UBUDSV SAVING "           GW ET" ON UNIT 52 AT TIME STEP 29, STRESS PERIOD    1
 UBUDSV SAVING "    UZF RECHARGE" ON UNIT 52 AT TIME STEP 29, STRESS PERIOD    1
 UBUDSV SAVING " SURFACE LEAKAGE" ON UNIT 52 AT TIME STEP 29, STRESS PERIOD    1
 UBUDSV SAVING "       HORT+DUNN" ON UNIT 52 AT TIME STEP 29, STRESS PERIOD    1
 UBUDSV SAVING "  STORAGE CHANGE" ON UNIT 52 AT TIME STEP 29, STRESS PERIOD    1

 HEAD WILL BE SAVED ON UNIT   51 AT END OF TIME STEP   29, STRESS PERIOD    1
 
 SOLVING FOR HEAD 

    ------------------------------------------------
       NWT REQUIRED            1 OUTER ITERATIONS 
       AND A TOTAL OF          2 INNER ITERATIONS.
    ------------------------------------------------

 OUTPUT CONTROL FOR STRESS PERIOD    1   TIME STEP   30
    SAVE HEAD FOR ALL LAYERS
    SAVE BUDGET
 UBDSV1 SAVING "         STORAGE" ON UNIT  52 AT TIME STEP 30, STRESS PERIOD   1
 UBDSV2 SAVING "   CONSTANT HEAD" ON UNIT  52 AT TIME STEP 30, STRESS PERIOD   1
 UBDSV1 SAVING "FLOW RIGHT FACE " ON UNIT  52 AT TIME STEP 30, STRESS PERIOD   1
 UBDSV1 SAVING "FLOW FRONT FACE " ON UNIT  52 AT TIME STEP 30, STRESS PERIOD   1
 UBDSV4 SAVING "  STREAM LEAKAGE" ON UNIT  52 AT TIME STEP 30, STRESS PERIOD   1



 UBUDSV SAVING "           GW ET" ON UNIT 52 AT TIME STEP 30, STRESS PERIOD    1
 UBUDSV SAVING "    UZF RECHARGE" ON UNIT 52 AT TIME STEP 30, STRESS PERIOD    1
 UBUDSV SAVING " SURFACE LEAKAGE" ON UNIT 52 AT TIME STEP 30, STRESS PERIOD    1
 UBUDSV SAVING "       HORT+DUNN" ON UNIT 52 AT TIME STEP 30, STRESS PERIOD    1
 UBUDSV SAVING "  STORAGE CHANGE" ON UNIT 52 AT TIME STEP 30, STRESS PERIOD    1

 HEAD WILL BE SAVED ON UNIT   51 AT END OF TIME STEP   30, STRESS PERIOD    1
 
 SOLVING FOR HEAD 

    ------------------------------------------------
       NWT REQUIRED            1 OUTER ITERATIONS 
       AND A TOTAL OF          2 INNER ITERATIONS.
    ------------------------------------------------

 OUTPUT CONTROL FOR STRESS PERIOD    1   TIME STEP   31
    SAVE HEAD FOR ALL LAYERS
    SAVE BUDGET
 UBDSV1 SAVING "         STORAGE" ON UNIT  52 AT TIME STEP 31, STRESS PERIOD   1
 UBDSV2 SAVING "   CONSTANT HEAD" ON UNIT  52 AT TIME STEP 31, STRESS PERIOD   1
 UBDSV1 SAVING "FLOW RIGHT FACE " ON UNIT  52 AT TIME STEP 31, STRESS PERIOD   1
 UBDSV1 SAVING "FLOW FRONT FACE " ON UNIT  52 AT TIME STEP 31, STRESS PERIOD   1
 UBDSV4 SAVING "  STREAM LEAKAGE" ON UNIT  52 AT TIME STEP 31, STRESS PERIOD   1



 UBUDSV SAVING "           GW ET" ON UNIT 52 AT TIME STEP 31, STRESS PERIOD    1
 UBUDSV SAVING "    UZF RECHARGE" ON UNIT 52 AT TIME STEP 31, STRESS PERIOD    1
 UBUDSV SAVING " SURFACE LEAKAGE" ON UNIT 52 AT TIME STEP 31, STRESS PERIOD    1
 UBUDSV SAVING "       HORT+DUNN" ON UNIT 52 AT TIME STEP 31, STRESS PERIOD    1
 UBUDSV SAVING "  STORAGE CHANGE" ON UNIT 52 AT TIME STEP 31, STRESS PERIOD    1


UNSATURATED ZONE PACKAGE VOLUMETRIC BUDGET FOR  TIME STEP    31 STRESS PERIOD    1
  ------------------------------------------------------------------------------



     CUMULATIVE VOLUMES      L**3       RATES FOR THIS TIME STEP      L**3/T
     ------------------                 ------------------------

           IN:                                      IN:
           ---                                      ---
        INFILTRATION =       34922.1603          INFILTRATION =        1126.5213

          OUT:                                     OUT:
          ----                                     ----
              UZF ET =       13147.5351                UZF ET =         424.1140
        UZF RECHARGE =        1320.8245          UZF RECHARGE =          42.6078

            IN - OUT =       20453.8007              IN - OUT =         659.7995

          STORAGE:                                 STORAGE:
          --------                                 --------
      STORAGE CHANGE =       20453.8017        STORAGE CHANGE =         659.7995

 PERCENT DISCREPANCY IS DIFFERENCE BETWEEN IN-OUT MINUS CHANGE IN STORAGE
 DIVIDED BY THE AVERAGE OF IN AND OUT TIMES 100

 PERCENT DISCREPANCY =           0.00     PERCENT DISCREPANCY =          -0.00






1
  VOLUMETRIC BUDGET FOR AGRICULTURAL FIELDS AT TIME STEP   31, STRESS PERIOD   1
  ------------------------------------------------------------------------------

     CUMULATIVE VOLUMES      L**3       RATES FOR THIS TIME STEP      L**3/T
     ------------------                 ------------------------

           IN:                                      IN:
           ---                                      ---
               AG WELLS  =           0.0000                 AG WELLS  =           0.0000
      DIVERSION SEGMENTS =           0.0000        DIVERSION SEGMENTS =           0.0000
           GW IRRIGATION =           0.0000             GW IRRIGATION =           0.0000
           SW IRRIGATION =           0.0000             SW IRRIGATION =           0.0000
        SYSTEM LOSSES GW =           0.0000          SYSTEM LOSSES GW =           0.0000
        SYSTEM LOSSES SW =           0.0000          SYSTEM LOSSES SW =           0.0000

                TOTAL IN =           0.0000                  TOTAL IN =           0.0000

          OUT:                                     OUT:
          ----                                     ----
               AG WELLS  =           0.0000                 AG WELLS  =           0.0000
      DIVERSION SEGMENTS =           0.0000        DIVERSION SEGMENTS =           0.0000
           GW IRRIGATION =           0.0000             GW IRRIGATION =           0.0000
           SW IRRIGATION =           0.0000             SW IRRIGATION =           0.0000
        SYSTEM LOSSES GW =           0.0000          SYSTEM LOSSES GW =           0.0000
        SYSTEM LOSSES SW =           0.0000          SYSTEM LOSSES SW =           0.0000

               TOTAL OUT =           0.0000                 TOTAL OUT =           0.0000

                IN - OUT =           0.0000                  IN - OUT =           0.0000

     PERCENT DISCREPANCY =           0.00         PERCENT DISCREPANCY =           0.00




 HEAD WILL BE SAVED ON UNIT   51 AT END OF TIME STEP   31, STRESS PERIOD    1
1
  VOLUMETRIC BUDGET FOR ENTIRE MODEL AT END OF TIME STEP   31, STRESS PERIOD   1
  ------------------------------------------------------------------------------

     CUMULATIVE VOLUMES      L**3       RATES FOR THIS TIME STEP      L**3/T
     ------------------                 ------------------------

           IN:                                      IN:
           ---                                      ---
             STORAGE     =           0.0000               STORAGE     =           0.0000
       CONSTANT HEAD     =           0.0000         CONSTANT HEAD     =           0.0000
      STREAM LEAKAGE     =           2.3567        STREAM LEAKAGE     =       7.6023E-02
        UZF RECHARGE     =        1320.8247          UZF RECHARGE     =          42.6078
               GW ET     =           0.0000                 GW ET     =           0.0000
     SURFACE LEAKAGE     =           0.0000       SURFACE LEAKAGE     =           0.0000
           AG WELLS      =           0.0000             AG WELLS      =           0.0000

                TOTAL IN =        1323.1814                  TOTAL IN =          42.6838

          OUT:                                     OUT:
          ----                                     ----
             STORAGE     =        1194.6985               STORAGE     =          38.5391
       CONSTANT HEAD     =           0.0000         CONSTANT HEAD     =           0.0000
      STREAM LEAKAGE     =           0.0000        STREAM LEAKAGE     =           0.0000
        UZF RECHARGE     =           0.0000          UZF RECHARGE     =           0.0000
               GW ET     =           0.0000                 GW ET     =           0.0000
     SURFACE LEAKAGE     =           0.0000       SURFACE LEAKAGE     =           0.0000
           AG WELLS      =           0.0000             AG WELLS      =           0.0000

               TOTAL OUT =        1194.6985                 TOTAL OUT =          38.5391

                IN - OUT =         128.4829                  IN - OUT =           4.1447

     PERCENT DISCREPANCY =          10.21         PERCENT DISCREPANCY =          10.21






         TIME SUMMARY AT END OF TIME STEP   31 IN STRESS PERIOD    1
                    SECONDS     MINUTES      HOURS       DAYS        YEARS
                    -----------------------------------------------------------
   TIME STEP LENGTH  86400.      1440.0      24.000      1.0000     2.73785E-03
 STRESS PERIOD TIME 2.67840E+06  44640.      744.00      31.000     8.48734E-02
         TOTAL TIME 2.67840E+06  44640.      744.00      31.000     8.48734E-02
1
1
                            STRESS PERIOD NO.    2, LENGTH =   28.00000    
                            -----------------------------------------------

                              NUMBER OF TIME STEPS =    28

                               MULTIPLIER FOR DELT =     1.000

                            INITIAL TIME STEP SIZE =   1.000000    



 CLASSIFICATION & COUNT OF STREAM SEGMENTS BASED ON SOURCE OF INFLOW:

                HEADWATER     DIVERSION     RECEIVES TRIBUTARY FLOW
                ---------     ---------     -----------------------
                     1              2               9



                    INPUT DATA FOR EACH STREAM SEGMENT
 ---------------------------------------------------------------------------------------------

 SEGMENT    SEG.     INFLOW   OVERLAND   STREAM    STREAM   ICALC  OUTFLOW  DIVERSION PRIORITY
    NO.    LENGTH     RATE     RUNOFF      ET       PPT.    METH.  TO SEG.  FROM SEG.    NO.

      1  1.000E+02 5.000E+01 0.000E+00 0.000E+00 0.000E+00    1        2        0        0
      2  1.000E+02 0.000E+00 0.000E+00 0.000E+00 0.000E+00    1        3        0        0
      3  1.000E+02 0.000E+00 0.000E+00 0.000E+00 0.000E+00    1        4        0        0
      4  1.000E+02 0.000E+00 0.000E+00 0.000E+00 0.000E+00    1        5        0        0
      5  1.000E+02 0.000E+00 0.000E+00 0.000E+00 0.000E+00    1        6        0        0
      6  1.000E+02 0.000E+00 0.000E+00 0.000E+00 0.000E+00    1        7        0        0
      7  1.000E+02 0.000E+00 0.000E+00 0.000E+00 0.000E+00    1        8        0        0
      8  1.000E+02 0.000E+00 0.000E+00 0.000E+00 0.000E+00    1        9        0        0
      9  1.000E+02 0.000E+00 0.000E+00 0.000E+00 0.000E+00    1       10        0        0
     10  1.000E+02 0.000E+00 0.000E+00 0.000E+00 0.000E+00    1        0        0        0
     11  1.000E+02 2.000E+01 0.000E+00 0.000E+00 0.000E+00    1        0        3        0
     12  1.000E+02 1.000E+01 0.000E+00 0.000E+00 0.000E+00    1        0        5        0


         STREAMBED PROPERTIES AND STREAM DIMENSIONS

 SEGMENT     BED HYD. COND.      BED THICKNESS     ELEV.-TOP OF BED     WIDTH OF STREAM     DEPTH OF STREAM    STREAM ROUGHNESS
    No.     UPPER     LOWER     UPPER     LOWER     UPPER     LOWER     UPPER     LOWER     UPPER     LOWER   CHANNEL      BANK

     1  1.500E-05 1.500E-05 5.000E-01 5.000E-01 9.900E+01 9.898E+01 5.000E+00 5.000E+00                     3.000E-02
     2  1.500E-05 1.500E-05 5.000E-01 5.000E-01 9.898E+01 9.896E+01 5.000E+00 5.000E+00                     3.000E-02
     3  1.500E-05 1.500E-05 5.000E-01 5.000E-01 9.896E+01 9.894E+01 5.000E+00 5.000E+00                     3.000E-02
     4  1.500E-05 1.500E-05 5.000E-01 5.000E-01 9.894E+01 9.892E+01 5.000E+00 5.000E+00                     3.000E-02
     5  1.500E-05 1.500E-05 5.000E-01 5.000E-01 9.892E+01 9.890E+01 5.000E+00 5.000E+00                     3.000E-02
     6  1.500E-05 1.500E-05 5.000E-01 5.000E-01 9.890E+01 9.888E+01 5.000E+00 5.000E+00                     3.000E-02
     7  1.500E-05 1.500E-05 5.000E-01 5.000E-01 9.888E+01 9.886E+01 5.000E+00 5.000E+00                     3.000E-02
     8  1.500E-05 1.500E-05 5.000E-01 5.000E-01 9.886E+01 9.884E+01 5.000E+00 5.000E+00                     3.000E-02
     9  1.500E-05 1.500E-05 5.000E-01 5.000E-01 9.884E+01 9.882E+01 5.000E+00 5.000E+00                     3.000E-02
    10  1.500E-05 1.500E-05 5.000E-01 5.000E-01 9.882E+01 9.880E+01 5.000E+00 5.000E+00                     3.000E-02
    11  1.500E-05 1.500E-05 5.000E-01 5.000E-01 9.894E+01 9.892E+01 5.000E+00 5.000E+00                     3.000E-02
    12  1.500E-05 1.500E-05 5.000E-01 5.000E-01 9.890E+01 9.888E+01 5.000E+00 5.000E+00                     3.000E-02






            AREAL INFILTRATION RATE
 READING ON UNIT   19 WITH FORMAT: (10E15.6)           



                            ET RATE
 READING ON UNIT   19 WITH FORMAT: (10E15.6)           



                ET EXTINCTION DEPTH
 READING ON UNIT   19 WITH FORMAT: (10E15.6)           



           EXTINCTION WATER CONTENT
 READING ON UNIT   19 WITH FORMAT: (10E15.6)           

 PROCESSING AG STRESS PERIOD DATA

 READING AG STRESS PERIOD DATA

 READING IRRIGATION SEGMENT

 END PROCESSING AG STRESS PERIOD DATA OPTIONS
 
 SOLVING FOR HEAD 

    ------------------------------------------------
       NWT REQUIRED            1 OUTER ITERATIONS 
       AND A TOTAL OF          2 INNER ITERATIONS.
    ------------------------------------------------

 OUTPUT CONTROL FOR STRESS PERIOD    2   TIME STEP    1
    SAVE HEAD FOR ALL LAYERS
    SAVE BUDGET
 UBDSV1 SAVING "         STORAGE" ON UNIT  52 AT TIME STEP  1, STRESS PERIOD   2
 UBDSV2 SAVING "   CONSTANT HEAD" ON UNIT  52 AT TIME STEP  1, STRESS PERIOD   2
 UBDSV1 SAVING "FLOW RIGHT FACE " ON UNIT  52 AT TIME STEP  1, STRESS PERIOD   2
 UBDSV1 SAVING "FLOW FRONT FACE " ON UNIT  52 AT TIME STEP  1, STRESS PERIOD   2
 UBDSV4 SAVING "  STREAM LEAKAGE" ON UNIT  52 AT TIME STEP  1, STRESS PERIOD   2



 UBUDSV SAVING "           GW ET" ON UNIT 52 AT TIME STEP  1, STRESS PERIOD    2
 UBUDSV SAVING "    UZF RECHARGE" ON UNIT 52 AT TIME STEP  1, STRESS PERIOD    2
 UBUDSV SAVING " SURFACE LEAKAGE" ON UNIT 52 AT TIME STEP  1, STRESS PERIOD    2
 UBUDSV SAVING "       HORT+DUNN" ON UNIT 52 AT TIME STEP  1, STRESS PERIOD    2
 UBUDSV SAVING "  STORAGE CHANGE" ON UNIT 52 AT TIME STEP  1, STRESS PERIOD    2

 HEAD WILL BE SAVED ON UNIT   51 AT END OF TIME STEP    1, STRESS PERIOD    2
 
 SOLVING FOR HEAD 

    ------------------------------------------------
       NWT REQUIRED            1 OUTER ITERATIONS 
       AND A TOTAL OF          2 INNER ITERATIONS.
    ------------------------------------------------

 OUTPUT CONTROL FOR STRESS PERIOD    2   TIME STEP    2
    SAVE HEAD FOR ALL LAYERS
    SAVE BUDGET
 UBDSV1 SAVING "         STORAGE" ON UNIT  52 AT TIME STEP  2, STRESS PERIOD   2
 UBDSV2 SAVING "   CONSTANT HEAD" ON UNIT  52 AT TIME STEP  2, STRESS PERIOD   2
 UBDSV1 SAVING "FLOW RIGHT FACE " ON UNIT  52 AT TIME STEP  2, STRESS PERIOD   2
 UBDSV1 SAVING "FLOW FRONT FACE " ON UNIT  52 AT TIME STEP  2, STRESS PERIOD   2
 UBDSV4 SAVING "  STREAM LEAKAGE" ON UNIT  52 AT TIME STEP  2, STRESS PERIOD   2



 UBUDSV SAVING "           GW ET" ON UNIT 52 AT TIME STEP  2, STRESS PERIOD    2
 UBUDSV SAVING "    UZF RECHARGE" ON UNIT 52 AT TIME STEP  2, STRESS PERIOD    2
 UBUDSV SAVING " SURFACE LEAKAGE" ON UNIT 52 AT TIME STEP  2, STRESS PERIOD    2
 UBUDSV SAVING "       HORT+DUNN" ON UNIT 52 AT TIME STEP  2, STRESS PERIOD    2
 UBUDSV SAVING "  STORAGE CHANGE" ON UNIT 52 AT TIME STEP  2, STRESS PERIOD    2

 HEAD WILL BE SAVED ON UNIT   51 AT END OF TIME STEP    2, STRESS PERIOD    2
 
 SOLVING FOR HEAD 

    ------------------------------------------------
       NWT REQUIRED            1 OUTER ITERATIONS 
       AND A TOTAL OF          2 INNER ITERATIONS.
    ------------------------------------------------

 OUTPUT CONTROL FOR STRESS PERIOD    2   TIME STEP    3
    SAVE HEAD FOR ALL LAYERS
    SAVE BUDGET
 UBDSV1 SAVING "         STORAGE" ON UNIT  52 AT TIME STEP  3, STRESS PERIOD   2
 UBDSV2 SAVING "   CONSTANT HEAD" ON UNIT  52 AT TIME STEP  3, STRESS PERIOD   2
 UBDSV1 SAVING "FLOW RIGHT FACE " ON UNIT  52 AT TIME STEP  3, STRESS PERIOD   2
 UBDSV1 SAVING "FLOW FRONT FACE " ON UNIT  52 AT TIME STEP  3, STRESS PERIOD   2
 UBDSV4 SAVING "  STREAM LEAKAGE" ON UNIT  52 AT TIME STEP  3, STRESS PERIOD   2



 UBUDSV SAVING "           GW ET" ON UNIT 52 AT TIME STEP  3, STRESS PERIOD    2
 UBUDSV SAVING "    UZF RECHARGE" ON UNIT 52 AT TIME STEP  3, STRESS PERIOD    2
 UBUDSV SAVING " SURFACE LEAKAGE" ON UNIT 52 AT TIME STEP  3, STRESS PERIOD    2
 UBUDSV SAVING "       HORT+DUNN" ON UNIT 52 AT TIME STEP  3, STRESS PERIOD    2
 UBUDSV SAVING "  STORAGE CHANGE" ON UNIT 52 AT TIME STEP  3, STRESS PERIOD    2

 HEAD WILL BE SAVED ON UNIT   51 AT END OF TIME STEP    3, STRESS PERIOD    2
 
 SOLVING FOR HEAD 

    ------------------------------------------------
       NWT REQUIRED            1 OUTER ITERATIONS 
       AND A TOTAL OF          2 INNER ITERATIONS.
    ------------------------------------------------

 OUTPUT CONTROL FOR STRESS PERIOD    2   TIME STEP    4
    SAVE HEAD FOR ALL LAYERS
    SAVE BUDGET
 UBDSV1 SAVING "         STORAGE" ON UNIT  52 AT TIME STEP  4, STRESS PERIOD   2
 UBDSV2 SAVING "   CONSTANT HEAD" ON UNIT  52 AT TIME STEP  4, STRESS PERIOD   2
 UBDSV1 SAVING "FLOW RIGHT FACE " ON UNIT  52 AT TIME STEP  4, STRESS PERIOD   2
 UBDSV1 SAVING "FLOW FRONT FACE " ON UNIT  52 AT TIME STEP  4, STRESS PERIOD   2
 UBDSV4 SAVING "  STREAM LEAKAGE" ON UNIT  52 AT TIME STEP  4, STRESS PERIOD   2



 UBUDSV SAVING "           GW ET" ON UNIT 52 AT TIME STEP  4, STRESS PERIOD    2
 UBUDSV SAVING "    UZF RECHARGE" ON UNIT 52 AT TIME STEP  4, STRESS PERIOD    2
 UBUDSV SAVING " SURFACE LEAKAGE" ON UNIT 52 AT TIME STEP  4, STRESS PERIOD    2
 UBUDSV SAVING "       HORT+DUNN" ON UNIT 52 AT TIME STEP  4, STRESS PERIOD    2
 UBUDSV SAVING "  STORAGE CHANGE" ON UNIT 52 AT TIME STEP  4, STRESS PERIOD    2

 HEAD WILL BE SAVED ON UNIT   51 AT END OF TIME STEP    4, STRESS PERIOD    2
 
 SOLVING FOR HEAD 

    ------------------------------------------------
       NWT REQUIRED            1 OUTER ITERATIONS 
       AND A TOTAL OF          2 INNER ITERATIONS.
    ------------------------------------------------

 OUTPUT CONTROL FOR STRESS PERIOD    2   TIME STEP    5
    SAVE HEAD FOR ALL LAYERS
    SAVE BUDGET
 UBDSV1 SAVING "         STORAGE" ON UNIT  52 AT TIME STEP  5, STRESS PERIOD   2
 UBDSV2 SAVING "   CONSTANT HEAD" ON UNIT  52 AT TIME STEP  5, STRESS PERIOD   2
 UBDSV1 SAVING "FLOW RIGHT FACE " ON UNIT  52 AT TIME STEP  5, STRESS PERIOD   2
 UBDSV1 SAVING "FLOW FRONT FACE " ON UNIT  52 AT TIME STEP  5, STRESS PERIOD   2
 UBDSV4 SAVING "  STREAM LEAKAGE" ON UNIT  52 AT TIME STEP  5, STRESS PERIOD   2



 UBUDSV SAVING "           GW ET" ON UNIT 52 AT TIME STEP  5, STRESS PERIOD    2
 UBUDSV SAVING "    UZF RECHARGE" ON UNIT 52 AT TIME STEP  5, STRESS PERIOD    2
 UBUDSV SAVING " SURFACE LEAKAGE" ON UNIT 52 AT TIME STEP  5, STRESS PERIOD    2
 UBUDSV SAVING "       HORT+DUNN" ON UNIT 52 AT TIME STEP  5, STRESS PERIOD    2
 UBUDSV SAVING "  STORAGE CHANGE" ON UNIT 52 AT TIME STEP  5, STRESS PERIOD    2

 HEAD WILL BE SAVED ON UNIT   51 AT END OF TIME STEP    5, STRESS PERIOD    2
 
 SOLVING FOR HEAD 

    ------------------------------------------------
       NWT REQUIRED            1 OUTER ITERATIONS 
       AND A TOTAL OF          2 INNER ITERATIONS.
    ------------------------------------------------

 OUTPUT CONTROL FOR STRESS PERIOD    2   TIME STEP    6
    SAVE HEAD FOR ALL LAYERS
    SAVE BUDGET
 UBDSV1 SAVING "         STORAGE" ON UNIT  52 AT TIME STEP  6, STRESS PERIOD   2
 UBDSV2 SAVING "   CONSTANT HEAD" ON UNIT  52 AT TIME STEP  6, STRESS PERIOD   2
 UBDSV1 SAVING "FLOW RIGHT FACE " ON UNIT  52 AT TIME STEP  6, STRESS PERIOD   2
 UBDSV1 SAVING "FLOW FRONT FACE " ON UNIT  52 AT TIME STEP  6, STRESS PERIOD   2
 UBDSV4 SAVING "  STREAM LEAKAGE" ON UNIT  52 AT TIME STEP  6, STRESS PERIOD   2



 UBUDSV SAVING "           GW ET" ON UNIT 52 AT TIME STEP  6, STRESS PERIOD    2
 UBUDSV SAVING "    UZF RECHARGE" ON UNIT 52 AT TIME STEP  6, STRESS PERIOD    2
 UBUDSV SAVING " SURFACE LEAKAGE" ON UNIT 52 AT TIME STEP  6, STRESS PERIOD    2
 UBUDSV SAVING "       HORT+DUNN" ON UNIT 52 AT TIME STEP  6, STRESS PERIOD    2
 UBUDSV SAVING "  STORAGE CHANGE" ON UNIT 52 AT TIME STEP  6, STRESS PERIOD    2

 HEAD WILL BE SAVED ON UNIT   51 AT END OF TIME STEP    6, STRESS PERIOD    2
 
 SOLVING FOR HEAD 

    ------------------------------------------------
       NWT REQUIRED            1 OUTER ITERATIONS 
       AND A TOTAL OF          2 INNER ITERATIONS.
    ------------------------------------------------

 OUTPUT CONTROL FOR STRESS PERIOD    2   TIME STEP    7
    SAVE HEAD FOR ALL LAYERS
    SAVE BUDGET
 UBDSV1 SAVING "         STORAGE" ON UNIT  52 AT TIME STEP  7, STRESS PERIOD   2
 UBDSV2 SAVING "   CONSTANT HEAD" ON UNIT  52 AT TIME STEP  7, STRESS PERIOD   2
 UBDSV1 SAVING "FLOW RIGHT FACE " ON UNIT  52 AT TIME STEP  7, STRESS PERIOD   2
 UBDSV1 SAVING "FLOW FRONT FACE " ON UNIT  52 AT TIME STEP  7, STRESS PERIOD   2
 UBDSV4 SAVING "  STREAM LEAKAGE" ON UNIT  52 AT TIME STEP  7, STRESS PERIOD   2



 UBUDSV SAVING "           GW ET" ON UNIT 52 AT TIME STEP  7, STRESS PERIOD    2
 UBUDSV SAVING "    UZF RECHARGE" ON UNIT 52 AT TIME STEP  7, STRESS PERIOD    2
 UBUDSV SAVING " SURFACE LEAKAGE" ON UNIT 52 AT TIME STEP  7, STRESS PERIOD    2
 UBUDSV SAVING "       HORT+DUNN" ON UNIT 52 AT TIME STEP  7, STRESS PERIOD    2
 UBUDSV SAVING "  STORAGE CHANGE" ON UNIT 52 AT TIME STEP  7, STRESS PERIOD    2

 HEAD WILL BE SAVED ON UNIT   51 AT END OF TIME STEP    7, STRESS PERIOD    2
 
 SOLVING FOR HEAD 

    ------------------------------------------------
       NWT REQUIRED            1 OUTER ITERATIONS 
       AND A TOTAL OF          2 INNER ITERATIONS.
    ------------------------------------------------

 OUTPUT CONTROL FOR STRESS PERIOD    2   TIME STEP    8
    SAVE HEAD FOR ALL LAYERS
    SAVE BUDGET
 UBDSV1 SAVING "         STORAGE" ON UNIT  52 AT TIME STEP  8, STRESS PERIOD   2
 UBDSV2 SAVING "   CONSTANT HEAD" ON UNIT  52 AT TIME STEP  8, STRESS PERIOD   2
 UBDSV1 SAVING "FLOW RIGHT FACE " ON UNIT  52 AT TIME STEP  8, STRESS PERIOD   2
 UBDSV1 SAVING "FLOW FRONT FACE " ON UNIT  52 AT TIME STEP  8, STRESS PERIOD   2
 UBDSV4 SAVING "  STREAM LEAKAGE" ON UNIT  52 AT TIME STEP  8, STRESS PERIOD   2



 UBUDSV SAVING "           GW ET" ON UNIT 52 AT TIME STEP  8, STRESS PERIOD    2
 UBUDSV SAVING "    UZF RECHARGE" ON UNIT 52 AT TIME STEP  8, STRESS PERIOD    2
 UBUDSV SAVING " SURFACE LEAKAGE" ON UNIT 52 AT TIME STEP  8, STRESS PERIOD    2
 UBUDSV SAVING "       HORT+DUNN" ON UNIT 52 AT TIME STEP  8, STRESS PERIOD    2
 UBUDSV SAVING "  STORAGE CHANGE" ON UNIT 52 AT TIME STEP  8, STRESS PERIOD    2

 HEAD WILL BE SAVED ON UNIT   51 AT END OF TIME STEP    8, STRESS PERIOD    2
 
 SOLVING FOR HEAD 

    ------------------------------------------------
       NWT REQUIRED            1 OUTER ITERATIONS 
       AND A TOTAL OF          2 INNER ITERATIONS.
    ------------------------------------------------

 OUTPUT CONTROL FOR STRESS PERIOD    2   TIME STEP    9
    SAVE HEAD FOR ALL LAYERS
    SAVE BUDGET
 UBDSV1 SAVING "         STORAGE" ON UNIT  52 AT TIME STEP  9, STRESS PERIOD   2
 UBDSV2 SAVING "   CONSTANT HEAD" ON UNIT  52 AT TIME STEP  9, STRESS PERIOD   2
 UBDSV1 SAVING "FLOW RIGHT FACE " ON UNIT  52 AT TIME STEP  9, STRESS PERIOD   2
 UBDSV1 SAVING "FLOW FRONT FACE " ON UNIT  52 AT TIME STEP  9, STRESS PERIOD   2
 UBDSV4 SAVING "  STREAM LEAKAGE" ON UNIT  52 AT TIME STEP  9, STRESS PERIOD   2



 UBUDSV SAVING "           GW ET" ON UNIT 52 AT TIME STEP  9, STRESS PERIOD    2
 UBUDSV SAVING "    UZF RECHARGE" ON UNIT 52 AT TIME STEP  9, STRESS PERIOD    2
 UBUDSV SAVING " SURFACE LEAKAGE" ON UNIT 52 AT TIME STEP  9, STRESS PERIOD    2
 UBUDSV SAVING "       HORT+DUNN" ON UNIT 52 AT TIME STEP  9, STRESS PERIOD    2
 UBUDSV SAVING "  STORAGE CHANGE" ON UNIT 52 AT TIME STEP  9, STRESS PERIOD    2

 HEAD WILL BE SAVED ON UNIT   51 AT END OF TIME STEP    9, STRESS PERIOD    2
 
 SOLVING FOR HEAD 

    ------------------------------------------------
       NWT REQUIRED            1 OUTER ITERATIONS 
       AND A TOTAL OF          2 INNER ITERATIONS.
    ------------------------------------------------

 OUTPUT CONTROL FOR STRESS PERIOD    2   TIME STEP   10
    SAVE HEAD FOR ALL LAYERS
    SAVE BUDGET
 UBDSV1 SAVING "         STORAGE" ON UNIT  52 AT TIME STEP 10, STRESS PERIOD   2
 UBDSV2 SAVING "   CONSTANT HEAD" ON UNIT  52 AT TIME STEP 10, STRESS PERIOD   2
 UBDSV1 SAVING "FLOW RIGHT FACE " ON UNIT  52 AT TIME STEP 10, STRESS PERIOD   2
 UBDSV1 SAVING "FLOW FRONT FACE " ON UNIT  52 AT TIME STEP 10, STRESS PERIOD   2
 UBDSV4 SAVING "  STREAM LEAKAGE" ON UNIT  52 AT TIME STEP 10, STRESS PERIOD   2



 UBUDSV SAVING "           GW ET" ON UNIT 52 AT TIME STEP 10, STRESS PERIOD    2
 UBUDSV SAVING "    UZF RECHARGE" ON UNIT 52 AT TIME STEP 10, STRESS PERIOD    2
 UBUDSV SAVING " SURFACE LEAKAGE" ON UNIT 52 AT TIME STEP 10, STRESS PERIOD    2
 UBUDSV SAVING "       HORT+DUNN" ON UNIT 52 AT TIME STEP 10, STRESS PERIOD    2
 UBUDSV SAVING "  STORAGE CHANGE" ON UNIT 52 AT TIME STEP 10, STRESS PERIOD    2

 HEAD WILL BE SAVED ON UNIT   51 AT END OF TIME STEP   10, STRESS PERIOD    2
 
 SOLVING FOR HEAD 

    ------------------------------------------------
       NWT REQUIRED            1 OUTER ITERATIONS 
       AND A TOTAL OF          2 INNER ITERATIONS.
    ------------------------------------------------

 OUTPUT CONTROL FOR STRESS PERIOD    2   TIME STEP   11
    SAVE HEAD FOR ALL LAYERS
    SAVE BUDGET
 UBDSV1 SAVING "         STORAGE" ON UNIT  52 AT TIME STEP 11, STRESS PERIOD   2
 UBDSV2 SAVING "   CONSTANT HEAD" ON UNIT  52 AT TIME STEP 11, STRESS PERIOD   2
 UBDSV1 SAVING "FLOW RIGHT FACE " ON UNIT  52 AT TIME STEP 11, STRESS PERIOD   2
 UBDSV1 SAVING "FLOW FRONT FACE " ON UNIT  52 AT TIME STEP 11, STRESS PERIOD   2
 UBDSV4 SAVING "  STREAM LEAKAGE" ON UNIT  52 AT TIME STEP 11, STRESS PERIOD   2



 UBUDSV SAVING "           GW ET" ON UNIT 52 AT TIME STEP 11, STRESS PERIOD    2
 UBUDSV SAVING "    UZF RECHARGE" ON UNIT 52 AT TIME STEP 11, STRESS PERIOD    2
 UBUDSV SAVING " SURFACE LEAKAGE" ON UNIT 52 AT TIME STEP 11, STRESS PERIOD    2
 UBUDSV SAVING "       HORT+DUNN" ON UNIT 52 AT TIME STEP 11, STRESS PERIOD    2
 UBUDSV SAVING "  STORAGE CHANGE" ON UNIT 52 AT TIME STEP 11, STRESS PERIOD    2

 HEAD WILL BE SAVED ON UNIT   51 AT END OF TIME STEP   11, STRESS PERIOD    2
 
 SOLVING FOR HEAD 

    ------------------------------------------------
       NWT REQUIRED            1 OUTER ITERATIONS 
       AND A TOTAL OF          2 INNER ITERATIONS.
    ------------------------------------------------

 OUTPUT CONTROL FOR STRESS PERIOD    2   TIME STEP   12
    SAVE HEAD FOR ALL LAYERS
    SAVE BUDGET
 UBDSV1 SAVING "         STORAGE" ON UNIT  52 AT TIME STEP 12, STRESS PERIOD   2
 UBDSV2 SAVING "   CONSTANT HEAD" ON UNIT  52 AT TIME STEP 12, STRESS PERIOD   2
 UBDSV1 SAVING "FLOW RIGHT FACE " ON UNIT  52 AT TIME STEP 12, STRESS PERIOD   2
 UBDSV1 SAVING "FLOW FRONT FACE " ON UNIT  52 AT TIME STEP 12, STRESS PERIOD   2
 UBDSV4 SAVING "  STREAM LEAKAGE" ON UNIT  52 AT TIME STEP 12, STRESS PERIOD   2



 UBUDSV SAVING "           GW ET" ON UNIT 52 AT TIME STEP 12, STRESS PERIOD    2
 UBUDSV SAVING "    UZF RECHARGE" ON UNIT 52 AT TIME STEP 12, STRESS PERIOD    2
 UBUDSV SAVING " SURFACE LEAKAGE" ON UNIT 52 AT TIME STEP 12, STRESS PERIOD    2
 UBUDSV SAVING "       HORT+DUNN" ON UNIT 52 AT TIME STEP 12, STRESS PERIOD    2
 UBUDSV SAVING "  STORAGE CHANGE" ON UNIT 52 AT TIME STEP 12, STRESS PERIOD    2

 HEAD WILL BE SAVED ON UNIT   51 AT END OF TIME STEP   12, STRESS PERIOD    2
 
 SOLVING FOR HEAD 

    ------------------------------------------------
       NWT REQUIRED            1 OUTER ITERATIONS 
       AND A TOTAL OF          2 INNER ITERATIONS.
    ------------------------------------------------

 OUTPUT CONTROL FOR STRESS PERIOD    2   TIME STEP   13
    SAVE HEAD FOR ALL LAYERS
    SAVE BUDGET
 UBDSV1 SAVING "         STORAGE" ON UNIT  52 AT TIME STEP 13, STRESS PERIOD   2
[...]
 UBUDSV SAVING "  STORAGE CHANGE" ON UNIT 52 AT TIME STEP 20, STRESS PERIOD   12

 HEAD WILL BE SAVED ON UNIT   51 AT END OF TIME STEP   20, STRESS PERIOD   12
 
 SOLVING FOR HEAD 

    ------------------------------------------------
       NWT REQUIRED            1 OUTER ITERATIONS 
       AND A TOTAL OF          1 INNER ITERATIONS.
    ------------------------------------------------

 OUTPUT CONTROL FOR STRESS PERIOD   12   TIME STEP   21
    SAVE HEAD FOR ALL LAYERS
    SAVE BUDGET
 UBDSV1 SAVING "         STORAGE" ON UNIT  52 AT TIME STEP 21, STRESS PERIOD  12
 UBDSV2 SAVING "   CONSTANT HEAD" ON UNIT  52 AT TIME STEP 21, STRESS PERIOD  12
 UBDSV1 SAVING "FLOW RIGHT FACE " ON UNIT  52 AT TIME STEP 21, STRESS PERIOD  12
 UBDSV1 SAVING "FLOW FRONT FACE " ON UNIT  52 AT TIME STEP 21, STRESS PERIOD  12
 UBDSV4 SAVING "  STREAM LEAKAGE" ON UNIT  52 AT TIME STEP 21, STRESS PERIOD  12



 UBUDSV SAVING "           GW ET" ON UNIT 52 AT TIME STEP 21, STRESS PERIOD   12
 UBUDSV SAVING "    UZF RECHARGE" ON UNIT 52 AT TIME STEP 21, STRESS PERIOD   12
 UBUDSV SAVING " SURFACE LEAKAGE" ON UNIT 52 AT TIME STEP 21, STRESS PERIOD   12
 UBUDSV SAVING "       HORT+DUNN" ON UNIT 52 AT TIME STEP 21, STRESS PERIOD   12
 UBUDSV SAVING "  STORAGE CHANGE" ON UNIT 52 AT TIME STEP 21, STRESS PERIOD   12

 HEAD WILL BE SAVED ON UNIT   51 AT END OF TIME STEP   21, STRESS PERIOD   12
 
 SOLVING FOR HEAD 

    ------------------------------------------------
       NWT REQUIRED            1 OUTER ITERATIONS 
       AND A TOTAL OF          1 INNER ITERATIONS.
    ------------------------------------------------

 OUTPUT CONTROL FOR STRESS PERIOD   12   TIME STEP   22
    SAVE HEAD FOR ALL LAYERS
    SAVE BUDGET
 UBDSV1 SAVING "         STORAGE" ON UNIT  52 AT TIME STEP 22, STRESS PERIOD  12
 UBDSV2 SAVING "   CONSTANT HEAD" ON UNIT  52 AT TIME STEP 22, STRESS PERIOD  12
 UBDSV1 SAVING "FLOW RIGHT FACE " ON UNIT  52 AT TIME STEP 22, STRESS PERIOD  12
 UBDSV1 SAVING "FLOW FRONT FACE " ON UNIT  52 AT TIME STEP 22, STRESS PERIOD  12
 UBDSV4 SAVING "  STREAM LEAKAGE" ON UNIT  52 AT TIME STEP 22, STRESS PERIOD  12



 UBUDSV SAVING "           GW ET" ON UNIT 52 AT TIME STEP 22, STRESS PERIOD   12
 UBUDSV SAVING "    UZF RECHARGE" ON UNIT 52 AT TIME STEP 22, STRESS PERIOD   12
 UBUDSV SAVING " SURFACE LEAKAGE" ON UNIT 52 AT TIME STEP 22, STRESS PERIOD   12
 UBUDSV SAVING "       HORT+DUNN" ON UNIT 52 AT TIME STEP 22, STRESS PERIOD   12
 UBUDSV SAVING "  STORAGE CHANGE" ON UNIT 52 AT TIME STEP 22, STRESS PERIOD   12

 HEAD WILL BE SAVED ON UNIT   51 AT END OF TIME STEP   22, STRESS PERIOD   12
 
 SOLVING FOR HEAD 

    ------------------------------------------------
       NWT REQUIRED            1 OUTER ITERATIONS 
       AND A TOTAL OF          1 INNER ITERATIONS.
    ------------------------------------------------

 OUTPUT CONTROL FOR STRESS PERIOD   12   TIME STEP   23
    SAVE HEAD FOR ALL LAYERS
    SAVE BUDGET
 UBDSV1 SAVING "         STORAGE" ON UNIT  52 AT TIME STEP 23, STRESS PERIOD  12
 UBDSV2 SAVING "   CONSTANT HEAD" ON UNIT  52 AT TIME STEP 23, STRESS PERIOD  12
 UBDSV1 SAVING "FLOW RIGHT FACE " ON UNIT  52 AT TIME STEP 23, STRESS PERIOD  12
 UBDSV1 SAVING "FLOW FRONT FACE " ON UNIT  52 AT TIME STEP 23, STRESS PERIOD  12
 UBDSV4 SAVING "  STREAM LEAKAGE" ON UNIT  52 AT TIME STEP 23, STRESS PERIOD  12



 UBUDSV SAVING "           GW ET" ON UNIT 52 AT TIME STEP 23, STRESS PERIOD   12
 UBUDSV SAVING "    UZF RECHARGE" ON UNIT 52 AT TIME STEP 23, STRESS PERIOD   12
 UBUDSV SAVING " SURFACE LEAKAGE" ON UNIT 52 AT TIME STEP 23, STRESS PERIOD   12
 UBUDSV SAVING "       HORT+DUNN" ON UNIT 52 AT TIME STEP 23, STRESS PERIOD   12
 UBUDSV SAVING "  STORAGE CHANGE" ON UNIT 52 AT TIME STEP 23, STRESS PERIOD   12

 HEAD WILL BE SAVED ON UNIT   51 AT END OF TIME STEP   23, STRESS PERIOD   12
 
 SOLVING FOR HEAD 

    ------------------------------------------------
       NWT REQUIRED            1 OUTER ITERATIONS 
       AND A TOTAL OF          1 INNER ITERATIONS.
    ------------------------------------------------

 OUTPUT CONTROL FOR STRESS PERIOD   12   TIME STEP   24
    SAVE HEAD FOR ALL LAYERS
    SAVE BUDGET
 UBDSV1 SAVING "         STORAGE" ON UNIT  52 AT TIME STEP 24, STRESS PERIOD  12
 UBDSV2 SAVING "   CONSTANT HEAD" ON UNIT  52 AT TIME STEP 24, STRESS PERIOD  12
 UBDSV1 SAVING "FLOW RIGHT FACE " ON UNIT  52 AT TIME STEP 24, STRESS PERIOD  12
 UBDSV1 SAVING "FLOW FRONT FACE " ON UNIT  52 AT TIME STEP 24, STRESS PERIOD  12
 UBDSV4 SAVING "  STREAM LEAKAGE" ON UNIT  52 AT TIME STEP 24, STRESS PERIOD  12



 UBUDSV SAVING "           GW ET" ON UNIT 52 AT TIME STEP 24, STRESS PERIOD   12
 UBUDSV SAVING "    UZF RECHARGE" ON UNIT 52 AT TIME STEP 24, STRESS PERIOD   12
 UBUDSV SAVING " SURFACE LEAKAGE" ON UNIT 52 AT TIME STEP 24, STRESS PERIOD   12
 UBUDSV SAVING "       HORT+DUNN" ON UNIT 52 AT TIME STEP 24, STRESS PERIOD   12
 UBUDSV SAVING "  STORAGE CHANGE" ON UNIT 52 AT TIME STEP 24, STRESS PERIOD   12

 HEAD WILL BE SAVED ON UNIT   51 AT END OF TIME STEP   24, STRESS PERIOD   12
 
 SOLVING FOR HEAD 

    ------------------------------------------------
       NWT REQUIRED            1 OUTER ITERATIONS 
       AND A TOTAL OF          1 INNER ITERATIONS.
    ------------------------------------------------

 OUTPUT CONTROL FOR STRESS PERIOD   12   TIME STEP   25
    SAVE HEAD FOR ALL LAYERS
    SAVE BUDGET
 UBDSV1 SAVING "         STORAGE" ON UNIT  52 AT TIME STEP 25, STRESS PERIOD  12
 UBDSV2 SAVING "   CONSTANT HEAD" ON UNIT  52 AT TIME STEP 25, STRESS PERIOD  12
 UBDSV1 SAVING "FLOW RIGHT FACE " ON UNIT  52 AT TIME STEP 25, STRESS PERIOD  12
 UBDSV1 SAVING "FLOW FRONT FACE " ON UNIT  52 AT TIME STEP 25, STRESS PERIOD  12
 UBDSV4 SAVING "  STREAM LEAKAGE" ON UNIT  52 AT TIME STEP 25, STRESS PERIOD  12



 UBUDSV SAVING "           GW ET" ON UNIT 52 AT TIME STEP 25, STRESS PERIOD   12
 UBUDSV SAVING "    UZF RECHARGE" ON UNIT 52 AT TIME STEP 25, STRESS PERIOD   12
 UBUDSV SAVING " SURFACE LEAKAGE" ON UNIT 52 AT TIME STEP 25, STRESS PERIOD   12
 UBUDSV SAVING "       HORT+DUNN" ON UNIT 52 AT TIME STEP 25, STRESS PERIOD   12
 UBUDSV SAVING "  STORAGE CHANGE" ON UNIT 52 AT TIME STEP 25, STRESS PERIOD   12

 HEAD WILL BE SAVED ON UNIT   51 AT END OF TIME STEP   25, STRESS PERIOD   12
 
 SOLVING FOR HEAD 

    ------------------------------------------------
       NWT REQUIRED            1 OUTER ITERATIONS 
       AND A TOTAL OF          1 INNER ITERATIONS.
    ------------------------------------------------

 OUTPUT CONTROL FOR STRESS PERIOD   12   TIME STEP   26
    SAVE HEAD FOR ALL LAYERS
    SAVE BUDGET
 UBDSV1 SAVING "         STORAGE" ON UNIT  52 AT TIME STEP 26, STRESS PERIOD  12
 UBDSV2 SAVING "   CONSTANT HEAD" ON UNIT  52 AT TIME STEP 26, STRESS PERIOD  12
 UBDSV1 SAVING "FLOW RIGHT FACE " ON UNIT  52 AT TIME STEP 26, STRESS PERIOD  12
 UBDSV1 SAVING "FLOW FRONT FACE " ON UNIT  52 AT TIME STEP 26, STRESS PERIOD  12
 UBDSV4 SAVING "  STREAM LEAKAGE" ON UNIT  52 AT TIME STEP 26, STRESS PERIOD  12



 UBUDSV SAVING "           GW ET" ON UNIT 52 AT TIME STEP 26, STRESS PERIOD   12
 UBUDSV SAVING "    UZF RECHARGE" ON UNIT 52 AT TIME STEP 26, STRESS PERIOD   12
 UBUDSV SAVING " SURFACE LEAKAGE" ON UNIT 52 AT TIME STEP 26, STRESS PERIOD   12
 UBUDSV SAVING "       HORT+DUNN" ON UNIT 52 AT TIME STEP 26, STRESS PERIOD   12
 UBUDSV SAVING "  STORAGE CHANGE" ON UNIT 52 AT TIME STEP 26, STRESS PERIOD   12

 HEAD WILL BE SAVED ON UNIT   51 AT END OF TIME STEP   26, STRESS PERIOD   12
 
 SOLVING FOR HEAD 

    ------------------------------------------------
       NWT REQUIRED            1 OUTER ITERATIONS 
       AND A TOTAL OF          1 INNER ITERATIONS.
    ------------------------------------------------

 OUTPUT CONTROL FOR STRESS PERIOD   12   TIME STEP   27
    SAVE HEAD FOR ALL LAYERS
    SAVE BUDGET
 UBDSV1 SAVING "         STORAGE" ON UNIT  52 AT TIME STEP 27, STRESS PERIOD  12
 UBDSV2 SAVING "   CONSTANT HEAD" ON UNIT  52 AT TIME STEP 27, STRESS PERIOD  12
 UBDSV1 SAVING "FLOW RIGHT FACE " ON UNIT  52 AT TIME STEP 27, STRESS PERIOD  12
 UBDSV1 SAVING "FLOW FRONT FACE " ON UNIT  52 AT TIME STEP 27, STRESS PERIOD  12
 UBDSV4 SAVING "  STREAM LEAKAGE" ON UNIT  52 AT TIME STEP 27, STRESS PERIOD  12



 UBUDSV SAVING "           GW ET" ON UNIT 52 AT TIME STEP 27, STRESS PERIOD   12
 UBUDSV SAVING "    UZF RECHARGE" ON UNIT 52 AT TIME STEP 27, STRESS PERIOD   12
 UBUDSV SAVING " SURFACE LEAKAGE" ON UNIT 52 AT TIME STEP 27, STRESS PERIOD   12
 UBUDSV SAVING "       HORT+DUNN" ON UNIT 52 AT TIME STEP 27, STRESS PERIOD   12
 UBUDSV SAVING "  STORAGE CHANGE" ON UNIT 52 AT TIME STEP 27, STRESS PERIOD   12

 HEAD WILL BE SAVED ON UNIT   51 AT END OF TIME STEP   27, STRESS PERIOD   12
 
 SOLVING FOR HEAD 

    ------------------------------------------------
       NWT REQUIRED            1 OUTER ITERATIONS 
       AND A TOTAL OF          1 INNER ITERATIONS.
    ------------------------------------------------

 OUTPUT CONTROL FOR STRESS PERIOD   12   TIME STEP   28
    SAVE HEAD FOR ALL LAYERS
    SAVE BUDGET
 UBDSV1 SAVING "         STORAGE" ON UNIT  52 AT TIME STEP 28, STRESS PERIOD  12
 UBDSV2 SAVING "   CONSTANT HEAD" ON UNIT  52 AT TIME STEP 28, STRESS PERIOD  12
 UBDSV1 SAVING "FLOW RIGHT FACE " ON UNIT  52 AT TIME STEP 28, STRESS PERIOD  12
 UBDSV1 SAVING "FLOW FRONT FACE " ON UNIT  52 AT TIME STEP 28, STRESS PERIOD  12
 UBDSV4 SAVING "  STREAM LEAKAGE" ON UNIT  52 AT TIME STEP 28, STRESS PERIOD  12



 UBUDSV SAVING "           GW ET" ON UNIT 52 AT TIME STEP 28, STRESS PERIOD   12
 UBUDSV SAVING "    UZF RECHARGE" ON UNIT 52 AT TIME STEP 28, STRESS PERIOD   12
 UBUDSV SAVING " SURFACE LEAKAGE" ON UNIT 52 AT TIME STEP 28, STRESS PERIOD   12
 UBUDSV SAVING "       HORT+DUNN" ON UNIT 52 AT TIME STEP 28, STRESS PERIOD   12
 UBUDSV SAVING "  STORAGE CHANGE" ON UNIT 52 AT TIME STEP 28, STRESS PERIOD   12

 HEAD WILL BE SAVED ON UNIT   51 AT END OF TIME STEP   28, STRESS PERIOD   12
 
 SOLVING FOR HEAD 

    ------------------------------------------------
       NWT REQUIRED            1 OUTER ITERATIONS 
       AND A TOTAL OF          1 INNER ITERATIONS.
    ------------------------------------------------

 OUTPUT CONTROL FOR STRESS PERIOD   12   TIME STEP   29
    SAVE HEAD FOR ALL LAYERS
    SAVE BUDGET
 UBDSV1 SAVING "         STORAGE" ON UNIT  52 AT TIME STEP 29, STRESS PERIOD  12
 UBDSV2 SAVING "   CONSTANT HEAD" ON UNIT  52 AT TIME STEP 29, STRESS PERIOD  12
 UBDSV1 SAVING "FLOW RIGHT FACE " ON UNIT  52 AT TIME STEP 29, STRESS PERIOD  12
 UBDSV1 SAVING "FLOW FRONT FACE " ON UNIT  52 AT TIME STEP 29, STRESS PERIOD  12
 UBDSV4 SAVING "  STREAM LEAKAGE" ON UNIT  52 AT TIME STEP 29, STRESS PERIOD  12



 UBUDSV SAVING "           GW ET" ON UNIT 52 AT TIME STEP 29, STRESS PERIOD   12
 UBUDSV SAVING "    UZF RECHARGE" ON UNIT 52 AT TIME STEP 29, STRESS PERIOD   12
 UBUDSV SAVING " SURFACE LEAKAGE" ON UNIT 52 AT TIME STEP 29, STRESS PERIOD   12
 UBUDSV SAVING "       HORT+DUNN" ON UNIT 52 AT TIME STEP 29, STRESS PERIOD   12
 UBUDSV SAVING "  STORAGE CHANGE" ON UNIT 52 AT TIME STEP 29, STRESS PERIOD   12

 HEAD WILL BE SAVED ON UNIT   51 AT END OF TIME STEP   29, STRESS PERIOD   12
 
 SOLVING FOR HEAD 

    ------------------------------------------------
       NWT REQUIRED            1 OUTER ITERATIONS 
       AND A TOTAL OF          1 INNER ITERATIONS.
    ------------------------------------------------

 OUTPUT CONTROL FOR STRESS PERIOD   12   TIME STEP   30
    SAVE HEAD FOR ALL LAYERS
    SAVE BUDGET
 UBDSV1 SAVING "         STORAGE" ON UNIT  52 AT TIME STEP 30, STRESS PERIOD  12
 UBDSV2 SAVING "   CONSTANT HEAD" ON UNIT  52 AT TIME STEP 30, STRESS PERIOD  12
 UBDSV1 SAVING "FLOW RIGHT FACE " ON UNIT  52 AT TIME STEP 30, STRESS PERIOD  12
 UBDSV1 SAVING "FLOW FRONT FACE " ON UNIT  52 AT TIME STEP 30, STRESS PERIOD  12
 UBDSV4 SAVING "  STREAM LEAKAGE" ON UNIT  52 AT TIME STEP 30, STRESS PERIOD  12



 UBUDSV SAVING "           GW ET" ON UNIT 52 AT TIME STEP 30, STRESS PERIOD   12
 UBUDSV SAVING "    UZF RECHARGE" ON UNIT 52 AT TIME STEP 30, STRESS PERIOD   12
 UBUDSV SAVING " SURFACE LEAKAGE" ON UNIT 52 AT TIME STEP 30, STRESS PERIOD   12
 UBUDSV SAVING "       HORT+DUNN" ON UNIT 52 AT TIME STEP 30, STRESS PERIOD   12
 UBUDSV SAVING "  STORAGE CHANGE" ON UNIT 52 AT TIME STEP 30, STRESS PERIOD   12

 HEAD WILL BE SAVED ON UNIT   51 AT END OF TIME STEP   30, STRESS PERIOD   12
 
 SOLVING FOR HEAD 

    ------------------------------------------------
       NWT REQUIRED            1 OUTER ITERATIONS 
       AND A TOTAL OF          1 INNER ITERATIONS.
    ------------------------------------------------

 OUTPUT CONTROL FOR STRESS PERIOD   12   TIME STEP   31
    SAVE HEAD FOR ALL LAYERS
    SAVE BUDGET
 UBDSV1 SAVING "         STORAGE" ON UNIT  52 AT TIME STEP 31, STRESS PERIOD  12
 UBDSV2 SAVING "   CONSTANT HEAD" ON UNIT  52 AT TIME STEP 31, STRESS PERIOD  12
 UBDSV1 SAVING "FLOW RIGHT FACE " ON UNIT  52 AT TIME STEP 31, STRESS PERIOD  12
 UBDSV1 SAVING "FLOW FRONT FACE " ON UNIT  52 AT TIME STEP 31, STRESS PERIOD  12
 UBDSV4 SAVING "  STREAM LEAKAGE" ON UNIT  52 AT TIME STEP 31, STRESS PERIOD  12



 UBUDSV SAVING "           GW ET" ON UNIT 52 AT TIME STEP 31, STRESS PERIOD   12
 UBUDSV SAVING "    UZF RECHARGE" ON UNIT 52 AT TIME STEP 31, STRESS PERIOD   12
 UBUDSV SAVING " SURFACE LEAKAGE" ON UNIT 52 AT TIME STEP 31, STRESS PERIOD   12
 UBUDSV SAVING "       HORT+DUNN" ON UNIT 52 AT TIME STEP 31, STRESS PERIOD   12
 UBUDSV SAVING "  STORAGE CHANGE" ON UNIT 52 AT TIME STEP 31, STRESS PERIOD   12


UNSATURATED ZONE PACKAGE VOLUMETRIC BUDGET FOR  TIME STEP    31 STRESS PERIOD   12
  ------------------------------------------------------------------------------



     CUMULATIVE VOLUMES      L**3       RATES FOR THIS TIME STEP      L**3/T
     ------------------                 ------------------------

           IN:                                      IN:
           ---                                      ---
        INFILTRATION =      193160.2591          INFILTRATION =        1034.2527

          OUT:                                     OUT:
          ----                                     ----
              UZF ET =      169549.4577                UZF ET =         283.4418
        UZF RECHARGE =       10892.3678          UZF RECHARGE =           4.4095

            IN - OUT =       12718.4335              IN - OUT =         746.4014

          STORAGE:                                 STORAGE:
          --------                                 --------
      STORAGE CHANGE =       12718.1689        STORAGE CHANGE =         746.4014

 PERCENT DISCREPANCY IS DIFFERENCE BETWEEN IN-OUT MINUS CHANGE IN STORAGE
 DIVIDED BY THE AVERAGE OF IN AND OUT TIMES 100

 PERCENT DISCREPANCY =           0.00     PERCENT DISCREPANCY =           0.00






1
  VOLUMETRIC BUDGET FOR AGRICULTURAL FIELDS AT TIME STEP   31, STRESS PERIOD  12
  ------------------------------------------------------------------------------

     CUMULATIVE VOLUMES      L**3       RATES FOR THIS TIME STEP      L**3/T
     ------------------                 ------------------------

           IN:                                      IN:
           ---                                      ---
               AG WELLS  =           0.0000                 AG WELLS  =           0.0000
      DIVERSION SEGMENTS =        5896.4946        DIVERSION SEGMENTS =           0.4824
           GW IRRIGATION =           0.0000             GW IRRIGATION =           0.0000
           SW IRRIGATION =           0.0000             SW IRRIGATION =           0.0000
        SYSTEM LOSSES GW =           0.0000          SYSTEM LOSSES GW =           0.0000
        SYSTEM LOSSES SW =           0.0000          SYSTEM LOSSES SW =           0.0000

                TOTAL IN =        5896.4946                  TOTAL IN =           0.4824

          OUT:                                     OUT:
          ----                                     ----
               AG WELLS  =           0.0000                 AG WELLS  =           0.0000
      DIVERSION SEGMENTS =           0.0000        DIVERSION SEGMENTS =           0.0000
           GW IRRIGATION =           0.0000             GW IRRIGATION =           0.0000
           SW IRRIGATION =        5896.4946             SW IRRIGATION =           0.4824
        SYSTEM LOSSES GW =           0.0000          SYSTEM LOSSES GW =           0.0000
        SYSTEM LOSSES SW =           0.0000          SYSTEM LOSSES SW =           0.0000

               TOTAL OUT =        5896.4946                 TOTAL OUT =           0.4824

                IN - OUT =           0.0000                  IN - OUT =           0.0000

     PERCENT DISCREPANCY =           0.00         PERCENT DISCREPANCY =           0.00




 HEAD WILL BE SAVED ON UNIT   51 AT END OF TIME STEP   31, STRESS PERIOD   12
1
  VOLUMETRIC BUDGET FOR ENTIRE MODEL AT END OF TIME STEP   31, STRESS PERIOD  12
  ------------------------------------------------------------------------------

     CUMULATIVE VOLUMES      L**3       RATES FOR THIS TIME STEP      L**3/T
     ------------------                 ------------------------

           IN:                                      IN:
           ---                                      ---
             STORAGE     =           0.0000               STORAGE     =           0.0000
       CONSTANT HEAD     =           0.0000         CONSTANT HEAD     =           0.0000
      STREAM LEAKAGE     =          27.7484        STREAM LEAKAGE     =       7.6023E-02
        UZF RECHARGE     =       10892.3838          UZF RECHARGE     =           4.4095
               GW ET     =           0.0000                 GW ET     =           0.0000
     SURFACE LEAKAGE     =           0.0000       SURFACE LEAKAGE     =           0.0000
           AG WELLS      =           0.0000             AG WELLS      =           0.0000

                TOTAL IN =       10920.1318                  TOTAL IN =           4.4855

          OUT:                                     OUT:
          ----                                     ----
             STORAGE     =        9829.6416               STORAGE     =           4.3324
       CONSTANT HEAD     =           0.0000         CONSTANT HEAD     =           0.0000
      STREAM LEAKAGE     =           0.0000        STREAM LEAKAGE     =           0.0000
        UZF RECHARGE     =           0.0000          UZF RECHARGE     =           0.0000
               GW ET     =           0.0000                 GW ET     =           0.0000
     SURFACE LEAKAGE     =           0.0000       SURFACE LEAKAGE     =           0.0000
           AG WELLS      =           0.0000             AG WELLS      =           0.0000

               TOTAL OUT =        9829.6416                 TOTAL OUT =           4.3324

                IN - OUT =        1090.4902                  IN - OUT =           0.1531

     PERCENT DISCREPANCY =          10.51         PERCENT DISCREPANCY =           3.47






         TIME SUMMARY AT END OF TIME STEP   31 IN STRESS PERIOD   12
                    SECONDS     MINUTES      HOURS       DAYS        YEARS
                    -----------------------------------------------------------
   TIME STEP LENGTH  86400.      1440.0      24.000      1.0000     2.73785E-03
 STRESS PERIOD TIME 2.67840E+06  44640.      744.00      31.000     8.48734E-02
         TOTAL TIME 3.15360E+07 5.25600E+05  8760.0      365.00     0.99932    
1

 Run end date and time (yyyy/mm/dd hh:mm:ss): 2022/07/26 15:33:29
 Elapsed run time:  0.321 Seconds

