                                  MODFLOW-NWT-SWR1 
      U.S. GEOLOGICAL SURVEY MODULAR FINITE-DIFFERENCE GROUNDWATER-FLOW MODEL
                            VERSION 1.2.0 03/01/2020
                    BASED ON MODFLOW-2005 VERSION 1.12.00 02/03/2017

 LIST FILE: prudic_ag.list
                         UNIT    2

 OPENING prudic_ag.nwt
 FILE TYPE:NWT   UNIT   32   STATUS:OLD    
 FORMAT:FORMATTED              ACCESS:SEQUENTIAL          

 OPENING prudic_ag.dis
 FILE TYPE:DIS   UNIT   11   STATUS:OLD    
 FORMAT:FORMATTED              ACCESS:SEQUENTIAL          

 OPENING prudic_ag.bas
 FILE TYPE:BAS6   UNIT   13   STATUS:OLD    
 FORMAT:FORMATTED              ACCESS:SEQUENTIAL          

 OPENING prudic_ag.upw
 FILE TYPE:UPW   UNIT   31   STATUS:OLD    
 FORMAT:FORMATTED              ACCESS:SEQUENTIAL          

 OPENING prudic_ag.ghb
 FILE TYPE:GHB   UNIT   23   STATUS:OLD    
 FORMAT:FORMATTED              ACCESS:SEQUENTIAL          

 OPENING prudic_ag.uzf
 FILE TYPE:UZF   UNIT   19   STATUS:OLD    
 FORMAT:FORMATTED              ACCESS:SEQUENTIAL          

 OPENING prudic_ag.sfr
 FILE TYPE:SFR   UNIT   17   STATUS:OLD    
 FORMAT:FORMATTED              ACCESS:SEQUENTIAL          

 OPENING prudic_ag.ag
 FILE TYPE:AG   UNIT   69   STATUS:OLD    
 FORMAT:FORMATTED              ACCESS:SEQUENTIAL          

 OPENING prudic_ag.oc
 FILE TYPE:OC   UNIT   14   STATUS:OLD    
 FORMAT:FORMATTED              ACCESS:SEQUENTIAL          

 OPENING prudic_ag.cbc
 FILE TYPE:DATA(BINARY)   UNIT  102   STATUS:REPLACE
 FORMAT:BINARY                 ACCESS:SEQUENTIAL          

 OPENING prudic_ag.hds
 FILE TYPE:DATA(BINARY)   UNIT   51   STATUS:REPLACE
 FORMAT:BINARY                 ACCESS:SEQUENTIAL          

 OPENING prudic_ag.diversion9.txt
 FILE TYPE:DATA   UNIT  107   STATUS:UNKNOWN
 FORMAT:FORMATTED              ACCESS:SEQUENTIAL          

 BAS -- BASIC PACKAGE, VERSION 1.2.0, 3/01/2020 INPUT READ FROM UNIT   13
 
 MODFLOW was compiled using mixed precision
 Precision of REAL variables:           6
 Precision of DOUBLE PRECISION variables:          15

 DISCRETIZATION INPUT DATA READ FROM UNIT   11
 # DIS package for MODFLOW-NWT generated by Flopy 3.3.6
    1 LAYERS        15 ROWS        10 COLUMNS
   49 STRESS PERIOD(S) IN SIMULATION
 MODEL TIME UNIT IS DAYS
 MODEL LENGTH UNIT IS FEET
  Confining bed flag for each layer:
   0

                     DELR =   5000.00    

                     DELC =   5000.00    



           TOP ELEVATION OF LAYER 1
 READING ON UNIT   11 WITH FORMAT: (10E15.6)           



             MODEL LAYER BOTTOM EL. FOR LAYER   1
 READING ON UNIT   11 WITH FORMAT: (10E15.6)           


 STRESS PERIOD     LENGTH       TIME STEPS     MULTIPLIER FOR DELT    SS FLAG
 ----------------------------------------------------------------------------
        1         1.000000          1                    1.000         SS
        2         30.50000         30                    1.000         TR
        3         30.50000         30                    1.000         TR
        4         30.50000         30                    1.000         TR
        5         30.50000         30                    1.000         TR
        6         30.50000         30                    1.000         TR
        7         30.50000         30                    1.000         TR
        8         30.50000         30                    1.000         TR
        9         30.50000         30                    1.000         TR
       10         30.50000         30                    1.000         TR
       11         30.50000         30                    1.000         TR
       12         30.50000         30                    1.000         TR
       13         30.50000         30                    1.000         TR
       14         30.50000         30                    1.000         TR
       15         30.50000         30                    1.000         TR
       16         30.50000         30                    1.000         TR
       17         30.50000         30                    1.000         TR
       18         30.50000         30                    1.000         TR
       19         30.50000         30                    1.000         TR
       20         30.50000         30                    1.000         TR
       21         30.50000         30                    1.000         TR
       22         30.50000         30                    1.000         TR
       23         30.50000         30                    1.000         TR
       24         30.50000         30                    1.000         TR
       25         30.50000         30                    1.000         TR
       26         30.50000         30                    1.000         TR
       27         30.50000         30                    1.000         TR
       28         30.50000         30                    1.000         TR
       29         30.50000         30                    1.000         TR
       30         30.50000         30                    1.000         TR
       31         30.50000         30                    1.000         TR
       32         30.50000         30                    1.000         TR
       33         30.50000         30                    1.000         TR
       34         30.50000         30                    1.000         TR
       35         30.50000         30                    1.000         TR
       36         30.50000         30                    1.000         TR
       37         30.50000         30                    1.000         TR
       38         30.50000         30                    1.000         TR
       39         30.50000         30                    1.000         TR
       40         30.50000         30                    1.000         TR
       41         30.50000         30                    1.000         TR
       42         30.50000         30                    1.000         TR
       43         30.50000         30                    1.000         TR
       44         30.50000         30                    1.000         TR
       45         30.50000         30                    1.000         TR
       46         30.50000         30                    1.000         TR
       47         30.50000         30                    1.000         TR
       48         30.50000         30                    1.000         TR
       49         30.50000         30                    1.000         TR

 COMBINED STEADY-STATE AND TRANSIENT SIMULATION



 
 # BAS6 package for MODFLOW-NWT generated by Flopy 3.3.6                         
 THE FREE FORMAT OPTION HAS BEEN SELECTED



                     BOUNDARY ARRAY FOR LAYER   1
 READING ON UNIT   13 WITH FORMAT: (10I10)             

 AQUIFER HEAD WILL BE SET TO  -999.99     AT ALL NO-FLOW NODES (IBOUND=0).



                       INITIAL HEAD FOR LAYER   1
 READING ON UNIT   13 WITH FORMAT: (10E15.6)           
 # OC package for MODFLOW-NWT generated by Flopy 3.3.6

 OUTPUT CONTROL IS SPECIFIED ONLY AT TIME STEPS FOR WHICH OUTPUT IS DESIRED
 COMPACT CELL-BY-CELL BUDGET FILES WILL BE WRITTEN
 AUXILIARY DATA WILL BE SAVED IN CELL-BY-CELL BUDGET FILES
 HEAD PRINT FORMAT CODE IS   0    DRAWDOWN PRINT FORMAT CODE IS   0
 HEADS WILL BE SAVED ON UNIT   51    DRAWDOWNS WILL BE SAVED ON UNIT    0
 # NWT package for MODFLOW-NWT generated by Flopy 3.3.6

 NWT1 -- Newton Solver, VERSION 1.2.0, 3/01/2020
         INPUT READ FROM UNIT 32

 SPECIFIED OPTION:
 SOLVER INPUT VALUES ARE SPECIFIED BY USER
 ***XMD linear solver will be used***
 
   CONVERGENCE CRITERION OF   0.100000E-01 FOR HEAD SOLUTION
   AND A TOLERANCE OF   0.500000E+02 FOR FLOW SOLUTION AND 
   A MAXIMUM OF   500 OUTER ITERATIONS. 


   D-B-D REDUCTION FACTOR OF    0.970000E+00 AND 
   A D-B-D INCREASE FACTOR OF    0.100000E-04 AND 
   A D-B-D RELAXATION OF    0.000000E+00 AND 
   A MOMENTUM FACTOR OF    0.100000E+00 .


 ***BACKTRACKING IS INACTIVE***
 XMD -- LINEAR SOLUTION BY XMD PACKAGE VERSION 1.30
     BY MOTOMU IBARAKI, OHIO STATE UNIVERSITY, COLOMBUS, OH
                 INPUT READ FROM UNIT 32
 ACCELERATION METHOD                    (IACL) =         1
 NODE ORDERING FLAG                   (NORDER) =         0
 LEVEL OF FILL                         (LEVEL) =         7
 MAXIMUM NUMBER OF ORTHOGONALIZATIONS  (NORTH) =         7
 INDEX FOR USING REDUCED SYSTEM      (IREDSYS) =         1
 RESID. REDUCTION CONVERGE CRITERION  (RRCTOL) =  0.000000E+00
 INDEX FOR USING DROP TOLERANCE     (IDROPTOL) =         1
 DROP TOLERANCE VALUE                  (EPSRN) =  0.500000E-02
 CONVERGENCE CRITERIA OF           (HCLOSEXMD) =  0.500000E-02
 MAX. NUMBER OF LINEAR ITERATIONS  (MXITERXMD) =        50


 UPW1 -- UPSTREAM WEIGHTING FLOW PACKAGE, VERSION 1.2.0, 3/01/2020
         INPUT READ FROM UNIT 31

 # UPW package for MODFLOW-NWT generated by Flopy 3.3.6
 CELL-BY-CELL FLOWS WILL BE SAVED ON UNIT  102
 No named parameters

   LAYER FLAGS:
 LAYER       LAYTYP          LAYAVG    CHANI           LAYVKA           LAYWET
 ---------------------------------------------------------------------------
    1             1             0     1.000E+00             0             0

   INTERPRETATION OF LAYER FLAGS:
                        INTERBLOCK     HORIZONTAL    DATA IN
         LAYER TYPE   TRANSMISSIVITY   ANISOTROPY   ARRAY VKA   WETTABILITY
 LAYER   (LAYTYP)        (LAYAVG)      (CHANI)     (LAYVKA)       (LAYWET)
 ---------------------------------------------------------------------------
    1   CONVERTIBLE      HARMONIC     1.000E+00    VERTICAL K  NON-WETTABLE



              HYD. COND. ALONG ROWS FOR LAYER   1
 READING ON UNIT   31 WITH FORMAT: (10E15.6)           

      VERTICAL HYD. COND. =  1.000000E-06 FOR LAYER   1

         SPECIFIC STORAGE =  1.000000E-06 FOR LAYER   1



                     SPECIFIC YIELD FOR LAYER   1
 READING ON UNIT   31 WITH FORMAT: (10E15.6)           

 GHB -- GENERAL-HEAD BOUNDARY PACKAGE, VERSION 7, 5/2/2005
         INPUT READ FROM UNIT   23
 # GHB package for MODFLOW-NWT generated by Flopy 3.3.6
 No named parameters
 MAXIMUM OF      2 ACTIVE GHB CELLS AT ONE TIME
 CELL-BY-CELL FLOWS WILL BE SAVED ON UNIT  102


     0 GHB parameters

 SFR7 -- STREAMFLOW ROUTING PACKAGE, VERSION 1.0.5, 2012-04-05
         INPUT READ FROM UNIT  17
 # SFR package for MODFLOW-NWT generated by Flopy 3.3.6
 No named parameters


 NUMBER OF STREAM REACHES IS   38

 NUMBER OF STREAM SEGMENTS IS    9

 NUMBER OF STREAM PARAMETERS IS    0

 NUMBER OF STREAM SEGMENTS DEFINED USING PARAMETERS IS              0

 MAXIMUM ERROR FOR STREAM LEAKAGE RATES IS  1.00E-06

 CONSTANT FOR MANNINGS EQUATION IS  8.6400E+04



 FLOW TO AND FROM GROUND WATER FOR EACH STREAM REACH WILL BE SAVED ON UNIT  102


   STREAM NETWORK DESCRIPTION: 

   LAYER    ROW    COL   SEGMENT   REACH     LENGTH
                          NUMBER   NUMBER    IN CELL        
   --------------------------------------------------
      1      1      1       1        1    4.5000E+03
      1      2      2       1        2    7.0000E+03
      1      3      3       1        3    6.0000E+03
      1      3      4       1        4    5.5500E+03
      1      4      5       2        1    6.5000E+03
      1      5      6       2        2    5.0000E+03
      1      6      6       2        3    5.0000E+03
      1      7      6       2        4    5.0000E+03
      1      8      6       2        5    5.0000E+03
      1      3      5       3        1    5.0000E+03
      1      3      6       3        2    5.0000E+03
      1      3      7       3        3    4.5000E+03
      1      4      8       3        4    6.0000E+03
      1      5      8       3        5    5.0000E+03
      1      6      8       3        6    2.0000E+03
      1      5     10       4        1    2.5000E+03
      1      5      9       4        2    5.0000E+03
      1      6      8       4        3    3.5000E+03
      1      6      8       5        1    4.0000E+03
      1      7      7       5        2    5.0000E+03
      1      8      7       5        3    3.5000E+03
      1      8      6       5        4    2.5000E+03
      1      9      6       6        1    5.0000E+03
      1     10      7       6        2    5.0000E+03
      1     11      7       6        3    5.0000E+03
      1     12      7       6        4    5.0000E+03
      1     13      7       6        5    2.0000E+03
      1     14      9       7        1    5.0000E+03
      1     13      8       7        2    5.5000E+03
      1     13      7       7        3    5.0000E+03
      1     13      6       8        1    5.0000E+03
      1     13      5       8        2    5.0000E+03
      1     13      4       8        3    5.0000E+03
      1     13      3       8        4    5.0000E+03
      1     13      2       8        5    5.0000E+03
      1     13      1       8        6    3.0000E+03
      1      8      6       9        1    3.0000E+03
      1      8      5       9        2    3.0000E+03




 UZF1 -- UNSATURATED FLOW PACKAGE, VERSION 1.5, 09/10/2019
         INPUT READ FROM UNIT 19
 # UZF package for MODFLOW-NWT generated by Flopy 3.3.6
 No named parameters



            AREAL EXTENT OF UZ FLOW
 READING ON UNIT   19 WITH FORMAT: (10I10)             
 OPTION 1 -- RECHARGE IN UZF TO TOP LAYER ONLY 



            ROUTING OVERLAND RUNOFF
 READING ON UNIT   19 WITH FORMAT: (10I10)             

     SATURATED VERTICAL K =  4.600000E-05

     BROOKS-COREY EPSILON =   7.50000    

  SATURATED WATER CONTENT =  0.380000    

 AG -- AG PACKAGE FOR NWT VERSION 1.1.3,  8/01/2017 INPUT READ FROM UNIT   69
 # AG package for MODFLOW-NWT generated by Flopy 3.3.6

 PROCESSING AG OPTIONS
 
 OPTION TO APPLY SURFACE WATER AS IRRIGATION IS ACTIVE. DIVERTED SURFACE WATER WILL BE APPLIED TO          1 CELLS/RHUS.
 
 
 OPTION TO APPLY PUMPED WATER AS IRRIGATION IS ACTIVE. PUMPED IRRIGATION WATER WILL BE APPLIED TO          6 CELLS/RHUS.
 
 
 OPTION TO PUMP SUPPLEMENTARY WATER FOR SURFACE DIVERSION SHORTFALL IS ACTIVATED.  A TOTAL OF             6 SUPPLEMENTAL WELLS ARE ACTIVE
 
 
 THE MAXIMUM NUMBER OF WELLS FOR SUPPLEMENTING DIVERSIONS OR APPLYING IRRIGATION IS          6 WELLS.
 
 
 AGRICULTURAL DEMANDS WILL BE CALCULATED USING ET DEFICIT
 
 
  SURFACE WATER IRRIGATION, POTENTIAL AND ACTUAL ET WILL BE SAVED TO TIMES SERIES OUTPUT FILES.
 
 
  UNFORMATTED CELL BY CELL RATES FOR SUP AND IRR WELLS WILL BE SAVED TO FILE UNIT NUMBER        102
 

 END PROCESSING AG OPTIONS
 # ag time series

 PROCESSING TIME SERIES

 FINISHED READING TIME SERIES
 A total number of          1 AG output time series files were activated for SURFACE WATER 
 A total number of          0 AG output time series files were activated for GROUNDWATER 
 A total number of          0 AG output time series files were activated for SURFACE WATER ET
 A total number of          0 AG output time series files were activated for GROUNDWATER ET
1
                            STRESS PERIOD NO.    1, LENGTH =   1.000000    
                            -----------------------------------------------

                              NUMBER OF TIME STEPS =     1

                               MULTIPLIER FOR DELT =     1.000

                            INITIAL TIME STEP SIZE =   1.000000    

 BOUND. NO. LAYER   ROW   COL     STAGE      CONDUCTANCE         
 ----------------------------------------------------------------
      1      1     13      1       988.0          0.3800E-01
      2      1     14      9       1045.          0.3800E-01

      2 GHB CELLS



 CLASSIFICATION & COUNT OF STREAM SEGMENTS BASED ON SOURCE OF INFLOW:

                HEADWATER     DIVERSION     RECEIVES TRIBUTARY FLOW
                ---------     ---------     -----------------------
                     4              1               4



                    INPUT DATA FOR EACH STREAM SEGMENT
 ---------------------------------------------------------------------------------------------

 SEGMENT    SEG.     INFLOW   OVERLAND   STREAM    STREAM   ICALC  OUTFLOW  DIVERSION PRIORITY
    NO.    LENGTH     RATE     RUNOFF      ET       PPT.    METH.  TO SEG.  FROM SEG.    NO.

      1  2.305E+04 5.000E+01 0.000E+00 0.000E+00 0.000E+00    1        2        0        0
      2  2.650E+04 0.000E+00 0.000E+00 0.000E+00 0.000E+00    1        6        0        0
      3  2.750E+04 0.000E+00 0.000E+00 0.000E+00 0.000E+00    1        5        0        0
      4  1.100E+04 1.000E+01 0.000E+00 0.000E+00 0.000E+00    1        5        0        0
      5  1.500E+04 0.000E+00 0.000E+00 0.000E+00 0.000E+00    1        6        0        0
      6  2.200E+04 0.000E+00 0.000E+00 0.000E+00 0.000E+00    1        8        0        0
      7  1.550E+04 1.500E+02 0.000E+00 0.000E+00 0.000E+00    1        8        0        0
      8  2.800E+04 0.000E+00 0.000E+00 0.000E+00 0.000E+00    1        0        0        0
      9  6.000E+03 1.000E+02 0.000E+00 0.000E+00 0.000E+00    1        0        2        0


         STREAMBED PROPERTIES AND STREAM DIMENSIONS

 SEGMENT     BED HYD. COND.      BED THICKNESS     ELEV.-TOP OF BED     WIDTH OF STREAM     DEPTH OF STREAM    STREAM ROUGHNESS
    No.     UPPER     LOWER     UPPER     LOWER     UPPER     LOWER     UPPER     LOWER     UPPER     LOWER   CHANNEL      BANK

     1  3.000E-05 7.730E-05 3.000E+00 3.000E+00 1.093E+03 1.077E+03 1.200E+01 1.200E+01                     3.000E-02
     2  3.000E-05 7.730E-05 3.000E+00 3.000E+00 1.072E+03 1.052E+03 1.200E+01 1.200E+01                     3.000E-02
     3  3.000E-05 7.730E-05 3.000E+00 3.000E+00 1.074E+03 1.061E+03 1.000E+01 1.000E+01                     3.000E-02
     4  3.000E-05 7.730E-05 3.000E+00 3.000E+00 1.078E+03 1.063E+03 1.000E+01 1.000E+01                     3.000E-02
     5  3.000E-05 7.730E-05 3.000E+00 3.000E+00 1.058E+03 1.046E+03 1.500E+01 1.500E+01                     3.000E-02
     6  3.000E-05 7.730E-05 3.000E+00 3.000E+00 1.043E+03 1.026E+03 1.200E+01 1.200E+01                     3.000E-02
     7  3.000E-05 6.000E-05 3.000E+00 3.000E+00 1.038E+03 1.027E+03 5.500E+01 5.500E+01                     3.000E-02
     8  3.000E-05 6.000E-05 3.000E+00 3.000E+00 1.022E+03 9.919E+02 4.000E+01 4.000E+01                     3.000E-02
     9  3.000E-05 1.000E-05 3.000E+00 3.000E+00 1.051E+03 1.050E+03 4.000E+00 4.000E+00                     3.000E-02






            AREAL INFILTRATION RATE
 READING ON UNIT   19 WITH FORMAT: (10E15.6)           

                  ET RATE =  1.000000E-08

      ET EXTINCTION DEPTH =  0.500000    

 EXTINCTION WATER CONTENT =  0.200000    

EXTINCTION WATER CONTENT FOR CELL AT ROW     2, COLUMN     1 IS LESS THAN RESIDUAL WATER CONTENT-- SETTING EXTINCTION WATER CONTENT EQUAL TO RESIDUAL WATER CONTENT

EXTINCTION WATER CONTENT FOR CELL AT ROW     2, COLUMN     6 IS LESS THAN RESIDUAL WATER CONTENT-- SETTING EXTINCTION WATER CONTENT EQUAL TO RESIDUAL WATER CONTENT

EXTINCTION WATER CONTENT FOR CELL AT ROW     2, COLUMN     7 IS LESS THAN RESIDUAL WATER CONTENT-- SETTING EXTINCTION WATER CONTENT EQUAL TO RESIDUAL WATER CONTENT

EXTINCTION WATER CONTENT FOR CELL AT ROW     2, COLUMN     8 IS LESS THAN RESIDUAL WATER CONTENT-- SETTING EXTINCTION WATER CONTENT EQUAL TO RESIDUAL WATER CONTENT

EXTINCTION WATER CONTENT FOR CELL AT ROW     3, COLUMN     2 IS LESS THAN RESIDUAL WATER CONTENT-- SETTING EXTINCTION WATER CONTENT EQUAL TO RESIDUAL WATER CONTENT

EXTINCTION WATER CONTENT FOR CELL AT ROW     3, COLUMN     5 IS LESS THAN RESIDUAL WATER CONTENT-- SETTING EXTINCTION WATER CONTENT EQUAL TO RESIDUAL WATER CONTENT

EXTINCTION WATER CONTENT FOR CELL AT ROW     3, COLUMN     6 IS LESS THAN RESIDUAL WATER CONTENT-- SETTING EXTINCTION WATER CONTENT EQUAL TO RESIDUAL WATER CONTENT

EXTINCTION WATER CONTENT FOR CELL AT ROW     3, COLUMN     7 IS LESS THAN RESIDUAL WATER CONTENT-- SETTING EXTINCTION WATER CONTENT EQUAL TO RESIDUAL WATER CONTENT

EXTINCTION WATER CONTENT FOR CELL AT ROW     3, COLUMN     8 IS LESS THAN RESIDUAL WATER CONTENT-- SETTING EXTINCTION WATER CONTENT EQUAL TO RESIDUAL WATER CONTENT

EXTINCTION WATER CONTENT FOR CELL AT ROW     4, COLUMN     1 IS LESS THAN RESIDUAL WATER CONTENT-- SETTING EXTINCTION WATER CONTENT EQUAL TO RESIDUAL WATER CONTENT

EXTINCTION WATER CONTENT FOR CELL AT ROW     4, COLUMN     2 IS LESS THAN RESIDUAL WATER CONTENT-- SETTING EXTINCTION WATER CONTENT EQUAL TO RESIDUAL WATER CONTENT

EXTINCTION WATER CONTENT FOR CELL AT ROW     4, COLUMN     3 IS LESS THAN RESIDUAL WATER CONTENT-- SETTING EXTINCTION WATER CONTENT EQUAL TO RESIDUAL WATER CONTENT

EXTINCTION WATER CONTENT FOR CELL AT ROW     4, COLUMN     7 IS LESS THAN RESIDUAL WATER CONTENT-- SETTING EXTINCTION WATER CONTENT EQUAL TO RESIDUAL WATER CONTENT

EXTINCTION WATER CONTENT FOR CELL AT ROW     4, COLUMN     8 IS LESS THAN RESIDUAL WATER CONTENT-- SETTING EXTINCTION WATER CONTENT EQUAL TO RESIDUAL WATER CONTENT

EXTINCTION WATER CONTENT FOR CELL AT ROW     4, COLUMN     9 IS LESS THAN RESIDUAL WATER CONTENT-- SETTING EXTINCTION WATER CONTENT EQUAL TO RESIDUAL WATER CONTENT

EXTINCTION WATER CONTENT FOR CELL AT ROW     5, COLUMN     1 IS LESS THAN RESIDUAL WATER CONTENT-- SETTING EXTINCTION WATER CONTENT EQUAL TO RESIDUAL WATER CONTENT

EXTINCTION WATER CONTENT FOR CELL AT ROW     5, COLUMN     2 IS LESS THAN RESIDUAL WATER CONTENT-- SETTING EXTINCTION WATER CONTENT EQUAL TO RESIDUAL WATER CONTENT

EXTINCTION WATER CONTENT FOR CELL AT ROW     5, COLUMN     3 IS LESS THAN RESIDUAL WATER CONTENT-- SETTING EXTINCTION WATER CONTENT EQUAL TO RESIDUAL WATER CONTENT

EXTINCTION WATER CONTENT FOR CELL AT ROW     6, COLUMN     1 IS LESS THAN RESIDUAL WATER CONTENT-- SETTING EXTINCTION WATER CONTENT EQUAL TO RESIDUAL WATER CONTENT

EXTINCTION WATER CONTENT FOR CELL AT ROW     6, COLUMN     2 IS LESS THAN RESIDUAL WATER CONTENT-- SETTING EXTINCTION WATER CONTENT EQUAL TO RESIDUAL WATER CONTENT

EXTINCTION WATER CONTENT FOR CELL AT ROW     6, COLUMN     3 IS LESS THAN RESIDUAL WATER CONTENT-- SETTING EXTINCTION WATER CONTENT EQUAL TO RESIDUAL WATER CONTENT

EXTINCTION WATER CONTENT FOR CELL AT ROW     6, COLUMN     9 IS LESS THAN RESIDUAL WATER CONTENT-- SETTING EXTINCTION WATER CONTENT EQUAL TO RESIDUAL WATER CONTENT

EXTINCTION WATER CONTENT FOR CELL AT ROW     6, COLUMN    10 IS LESS THAN RESIDUAL WATER CONTENT-- SETTING EXTINCTION WATER CONTENT EQUAL TO RESIDUAL WATER CONTENT

EXTINCTION WATER CONTENT FOR CELL AT ROW     7, COLUMN     1 IS LESS THAN RESIDUAL WATER CONTENT-- SETTING EXTINCTION WATER CONTENT EQUAL TO RESIDUAL WATER CONTENT

EXTINCTION WATER CONTENT FOR CELL AT ROW     7, COLUMN     2 IS LESS THAN RESIDUAL WATER CONTENT-- SETTING EXTINCTION WATER CONTENT EQUAL TO RESIDUAL WATER CONTENT

EXTINCTION WATER CONTENT FOR CELL AT ROW     7, COLUMN     3 IS LESS THAN RESIDUAL WATER CONTENT-- SETTING EXTINCTION WATER CONTENT EQUAL TO RESIDUAL WATER CONTENT

EXTINCTION WATER CONTENT FOR CELL AT ROW     7, COLUMN     9 IS LESS THAN RESIDUAL WATER CONTENT-- SETTING EXTINCTION WATER CONTENT EQUAL TO RESIDUAL WATER CONTENT

EXTINCTION WATER CONTENT FOR CELL AT ROW     8, COLUMN     2 IS LESS THAN RESIDUAL WATER CONTENT-- SETTING EXTINCTION WATER CONTENT EQUAL TO RESIDUAL WATER CONTENT

EXTINCTION WATER CONTENT FOR CELL AT ROW     8, COLUMN     3 IS LESS THAN RESIDUAL WATER CONTENT-- SETTING EXTINCTION WATER CONTENT EQUAL TO RESIDUAL WATER CONTENT

EXTINCTION WATER CONTENT FOR CELL AT ROW     8, COLUMN     8 IS LESS THAN RESIDUAL WATER CONTENT-- SETTING EXTINCTION WATER CONTENT EQUAL TO RESIDUAL WATER CONTENT

EXTINCTION WATER CONTENT FOR CELL AT ROW     8, COLUMN     9 IS LESS THAN RESIDUAL WATER CONTENT-- SETTING EXTINCTION WATER CONTENT EQUAL TO RESIDUAL WATER CONTENT

EXTINCTION WATER CONTENT FOR CELL AT ROW     9, COLUMN     2 IS LESS THAN RESIDUAL WATER CONTENT-- SETTING EXTINCTION WATER CONTENT EQUAL TO RESIDUAL WATER CONTENT

EXTINCTION WATER CONTENT FOR CELL AT ROW     9, COLUMN     3 IS LESS THAN RESIDUAL WATER CONTENT-- SETTING EXTINCTION WATER CONTENT EQUAL TO RESIDUAL WATER CONTENT

EXTINCTION WATER CONTENT FOR CELL AT ROW     9, COLUMN     8 IS LESS THAN RESIDUAL WATER CONTENT-- SETTING EXTINCTION WATER CONTENT EQUAL TO RESIDUAL WATER CONTENT

EXTINCTION WATER CONTENT FOR CELL AT ROW     9, COLUMN     9 IS LESS THAN RESIDUAL WATER CONTENT-- SETTING EXTINCTION WATER CONTENT EQUAL TO RESIDUAL WATER CONTENT

EXTINCTION WATER CONTENT FOR CELL AT ROW    10, COLUMN     2 IS LESS THAN RESIDUAL WATER CONTENT-- SETTING EXTINCTION WATER CONTENT EQUAL TO RESIDUAL WATER CONTENT

EXTINCTION WATER CONTENT FOR CELL AT ROW    10, COLUMN     3 IS LESS THAN RESIDUAL WATER CONTENT-- SETTING EXTINCTION WATER CONTENT EQUAL TO RESIDUAL WATER CONTENT

EXTINCTION WATER CONTENT FOR CELL AT ROW    10, COLUMN     8 IS LESS THAN RESIDUAL WATER CONTENT-- SETTING EXTINCTION WATER CONTENT EQUAL TO RESIDUAL WATER CONTENT

EXTINCTION WATER CONTENT FOR CELL AT ROW    10, COLUMN     9 IS LESS THAN RESIDUAL WATER CONTENT-- SETTING EXTINCTION WATER CONTENT EQUAL TO RESIDUAL WATER CONTENT

EXTINCTION WATER CONTENT FOR CELL AT ROW    10, COLUMN    10 IS LESS THAN RESIDUAL WATER CONTENT-- SETTING EXTINCTION WATER CONTENT EQUAL TO RESIDUAL WATER CONTENT

EXTINCTION WATER CONTENT FOR CELL AT ROW    11, COLUMN     2 IS LESS THAN RESIDUAL WATER CONTENT-- SETTING EXTINCTION WATER CONTENT EQUAL TO RESIDUAL WATER CONTENT

EXTINCTION WATER CONTENT FOR CELL AT ROW    11, COLUMN     3 IS LESS THAN RESIDUAL WATER CONTENT-- SETTING EXTINCTION WATER CONTENT EQUAL TO RESIDUAL WATER CONTENT

EXTINCTION WATER CONTENT FOR CELL AT ROW    11, COLUMN     8 IS LESS THAN RESIDUAL WATER CONTENT-- SETTING EXTINCTION WATER CONTENT EQUAL TO RESIDUAL WATER CONTENT

EXTINCTION WATER CONTENT FOR CELL AT ROW    11, COLUMN     9 IS LESS THAN RESIDUAL WATER CONTENT-- SETTING EXTINCTION WATER CONTENT EQUAL TO RESIDUAL WATER CONTENT

EXTINCTION WATER CONTENT FOR CELL AT ROW    12, COLUMN     1 IS LESS THAN RESIDUAL WATER CONTENT-- SETTING EXTINCTION WATER CONTENT EQUAL TO RESIDUAL WATER CONTENT

EXTINCTION WATER CONTENT FOR CELL AT ROW    12, COLUMN     2 IS LESS THAN RESIDUAL WATER CONTENT-- SETTING EXTINCTION WATER CONTENT EQUAL TO RESIDUAL WATER CONTENT

EXTINCTION WATER CONTENT FOR CELL AT ROW    12, COLUMN     8 IS LESS THAN RESIDUAL WATER CONTENT-- SETTING EXTINCTION WATER CONTENT EQUAL TO RESIDUAL WATER CONTENT

EXTINCTION WATER CONTENT FOR CELL AT ROW    12, COLUMN     9 IS LESS THAN RESIDUAL WATER CONTENT-- SETTING EXTINCTION WATER CONTENT EQUAL TO RESIDUAL WATER CONTENT

EXTINCTION WATER CONTENT FOR CELL AT ROW    14, COLUMN     2 IS LESS THAN RESIDUAL WATER CONTENT-- SETTING EXTINCTION WATER CONTENT EQUAL TO RESIDUAL WATER CONTENT

EXTINCTION WATER CONTENT FOR CELL AT ROW    14, COLUMN     3 IS LESS THAN RESIDUAL WATER CONTENT-- SETTING EXTINCTION WATER CONTENT EQUAL TO RESIDUAL WATER CONTENT

EXTINCTION WATER CONTENT FOR CELL AT ROW    14, COLUMN     4 IS LESS THAN RESIDUAL WATER CONTENT-- SETTING EXTINCTION WATER CONTENT EQUAL TO RESIDUAL WATER CONTENT

EXTINCTION WATER CONTENT FOR CELL AT ROW    14, COLUMN     5 IS LESS THAN RESIDUAL WATER CONTENT-- SETTING EXTINCTION WATER CONTENT EQUAL TO RESIDUAL WATER CONTENT

EXTINCTION WATER CONTENT FOR CELL AT ROW    14, COLUMN     6 IS LESS THAN RESIDUAL WATER CONTENT-- SETTING EXTINCTION WATER CONTENT EQUAL TO RESIDUAL WATER CONTENT

EXTINCTION WATER CONTENT FOR CELL AT ROW    14, COLUMN     7 IS LESS THAN RESIDUAL WATER CONTENT-- SETTING EXTINCTION WATER CONTENT EQUAL TO RESIDUAL WATER CONTENT

EXTINCTION WATER CONTENT FOR CELL AT ROW    14, COLUMN     8 IS LESS THAN RESIDUAL WATER CONTENT-- SETTING EXTINCTION WATER CONTENT EQUAL TO RESIDUAL WATER CONTENT

EXTINCTION WATER CONTENT FOR CELL AT ROW    15, COLUMN     3 IS LESS THAN RESIDUAL WATER CONTENT-- SETTING EXTINCTION WATER CONTENT EQUAL TO RESIDUAL WATER CONTENT

EXTINCTION WATER CONTENT FOR CELL AT ROW    15, COLUMN     4 IS LESS THAN RESIDUAL WATER CONTENT-- SETTING EXTINCTION WATER CONTENT EQUAL TO RESIDUAL WATER CONTENT

EXTINCTION WATER CONTENT FOR CELL AT ROW    15, COLUMN     5 IS LESS THAN RESIDUAL WATER CONTENT-- SETTING EXTINCTION WATER CONTENT EQUAL TO RESIDUAL WATER CONTENT

EXTINCTION WATER CONTENT FOR CELL AT ROW    15, COLUMN     6 IS LESS THAN RESIDUAL WATER CONTENT-- SETTING EXTINCTION WATER CONTENT EQUAL TO RESIDUAL WATER CONTENT
 # segment list for irrigation diversions

 PROCESSING SEGMENT LIST

 FINISHED READING SEGMENT LIST
 # ag well list

 PROCESSING WELL LIST

 LAYER   ROW   COL   MAX STRESS RATE         
 --------------------------------------------
      1      1      6      4      -100.0    
      2      1      6      5      -100.0    
      3      1      7      4      -100.0    
      4      1      7      5      -100.0    
      5      1      8      4      -100.0    
      6      1      8      5      -100.0    

 FINISHED READING WELL LIST

      6 WELLS

 PROCESSING AG STRESS PERIOD DATA
 # ag stress period data

 READING AG STRESS PERIOD DATA

 READING IRRIGATION SEGMENT

 READING IRRIGATION WELL

 READING SUPPLEMENTAL WELL

 END PROCESSING AG STRESS PERIOD DATA OPTIONS
 
 SOLVING FOR HEAD 
                                                   Max.-Head-Change                         Max.-Flux-Residual
  Residual-Control   Outer-Iter.   Inner-Iter.     Column Row Layer    Maximum-Head-Change  Column Row Layer    Maximum-Flux-Residual          L2-NORM 
          0                 1           4             4    3     1       0.6009206045E+01       9   14    1        -0.1237879369E+02      0.2552387169E+02
          0                 2           4             3    3     1      -0.2522644039E+01       4    3    1        -0.5789298211E+01      0.1003393008E+02
          0                 3           3             6    3     1      -0.1151256500E+01       4    3    1        -0.1259481058E+01      0.1553809145E+01
          0                 4           2             6    3     1       0.1060257257E+00       4    3    1         0.8795627345E-01      0.1106360882E+00
          0                 5           2             6    3     1      -0.7216166313E-02       4    3    1        -0.3595110332E-02      0.5216507860E-02

    ------------------------------------------------
       NWT REQUIRED            5 OUTER ITERATIONS 
       AND A TOTAL OF         15 INNER ITERATIONS.
    ------------------------------------------------

 OUTPUT CONTROL FOR STRESS PERIOD    1   TIME STEP    1
    SAVE HEAD FOR ALL LAYERS
    SAVE BUDGET
 UBDSV2 SAVING "   CONSTANT HEAD" ON UNIT 102 AT TIME STEP  1, STRESS PERIOD   1
 UBDSV1 SAVING "FLOW RIGHT FACE " ON UNIT 102 AT TIME STEP  1, STRESS PERIOD   1
 UBDSV1 SAVING "FLOW FRONT FACE " ON UNIT 102 AT TIME STEP  1, STRESS PERIOD   1
 UBDSV4 SAVING " HEAD DEP BOUNDS" ON UNIT 102 AT TIME STEP  1, STRESS PERIOD   1
 UBDSV4 SAVING "  STREAM LEAKAGE" ON UNIT 102 AT TIME STEP  1, STRESS PERIOD   1



 UBUDSV SAVING "           GW ET" ON UNIT102 AT TIME STEP  1, STRESS PERIOD    1
 UBUDSV SAVING "    UZF RECHARGE" ON UNIT102 AT TIME STEP  1, STRESS PERIOD    1
 UBUDSV SAVING " SURFACE LEAKAGE" ON UNIT102 AT TIME STEP  1, STRESS PERIOD    1
 UBUDSV SAVING "       HORT+DUNN" ON UNIT102 AT TIME STEP  1, STRESS PERIOD    1
 UBUDSV SAVING "  STORAGE CHANGE" ON UNIT102 AT TIME STEP  1, STRESS PERIOD    1


UNSATURATED ZONE PACKAGE VOLUMETRIC BUDGET FOR  TIME STEP     1 STRESS PERIOD    1
  ------------------------------------------------------------------------------



     CUMULATIVE VOLUMES      L**3       RATES FOR THIS TIME STEP      L**3/T
     ------------------                 ------------------------

           IN:                                      IN:
           ---                                      ---
        INFILTRATION =           0.8475          INFILTRATION =           0.8475

          OUT:                                     OUT:
          ----                                     ----
              UZF ET =       0.0000E+00                UZF ET =       0.0000E+00
        UZF RECHARGE =           0.8475          UZF RECHARGE =           0.8475

            IN - OUT =       0.0000E+00              IN - OUT =       0.0000E+00

          STORAGE:                                 STORAGE:
          --------                                 --------
      STORAGE CHANGE =       0.0000E+00        STORAGE CHANGE =       0.0000E+00

 PERCENT DISCREPANCY IS DIFFERENCE BETWEEN IN-OUT MINUS CHANGE IN STORAGE
 DIVIDED BY THE AVERAGE OF IN AND OUT TIMES 100

 PERCENT DISCREPANCY =           0.00     PERCENT DISCREPANCY =           0.00






 UBDSV4 SAVING "           AG WE" ON UNIT 102 AT TIME STEP  1, STRESS PERIOD   1
1
  VOLUMETRIC BUDGET FOR AGRICULTURAL FIELDS AT TIME STEP    1, STRESS PERIOD   1
  ------------------------------------------------------------------------------

     CUMULATIVE VOLUMES      L**3       RATES FOR THIS TIME STEP      L**3/T
     ------------------                 ------------------------

           IN:                                      IN:
           ---                                      ---
               AG WELLS  =           0.0000                 AG WELLS  =           0.0000
      DIVERSION SEGMENTS =           0.0000        DIVERSION SEGMENTS =           0.0000
           GW IRRIGATION =           0.0000             GW IRRIGATION =           0.0000
           SW IRRIGATION =           0.0000             SW IRRIGATION =           0.0000
        SYSTEM LOSSES GW =           0.0000          SYSTEM LOSSES GW =           0.0000
        SYSTEM LOSSES SW =           0.0000          SYSTEM LOSSES SW =           0.0000

                TOTAL IN =           0.0000                  TOTAL IN =           0.0000

          OUT:                                     OUT:
          ----                                     ----
               AG WELLS  =           0.0000                 AG WELLS  =           0.0000
      DIVERSION SEGMENTS =           0.0000        DIVERSION SEGMENTS =           0.0000
           GW IRRIGATION =           0.0000             GW IRRIGATION =           0.0000
           SW IRRIGATION =           0.0000             SW IRRIGATION =           0.0000
        SYSTEM LOSSES GW =           0.0000          SYSTEM LOSSES GW =           0.0000
        SYSTEM LOSSES SW =           0.0000          SYSTEM LOSSES SW =           0.0000

               TOTAL OUT =           0.0000                 TOTAL OUT =           0.0000

                IN - OUT =           0.0000                  IN - OUT =           0.0000

     PERCENT DISCREPANCY =           0.00         PERCENT DISCREPANCY =           0.00




 HEAD WILL BE SAVED ON UNIT   51 AT END OF TIME STEP    1, STRESS PERIOD    1
1
  VOLUMETRIC BUDGET FOR ENTIRE MODEL AT END OF TIME STEP    1, STRESS PERIOD   1
  ------------------------------------------------------------------------------

     CUMULATIVE VOLUMES      L**3       RATES FOR THIS TIME STEP      L**3/T
     ------------------                 ------------------------

           IN:                                      IN:
           ---                                      ---
             STORAGE     =           0.0000               STORAGE     =           0.0000
       CONSTANT HEAD     =           0.0000         CONSTANT HEAD     =           0.0000
     HEAD DEP BOUNDS     =           0.3510       HEAD DEP BOUNDS     =           0.3510
      STREAM LEAKAGE     =          35.2201        STREAM LEAKAGE     =          35.2201
        UZF RECHARGE     =           0.8475          UZF RECHARGE     =           0.8475
               GW ET     =           0.0000                 GW ET     =           0.0000
     SURFACE LEAKAGE     =           0.0000       SURFACE LEAKAGE     =           0.0000
           AG WELLS      =           0.0000             AG WELLS      =           0.0000

                TOTAL IN =          36.4187                  TOTAL IN =          36.4187

          OUT:                                     OUT:
          ----                                     ----
             STORAGE     =           0.0000               STORAGE     =           0.0000
       CONSTANT HEAD     =           0.0000         CONSTANT HEAD     =           0.0000
     HEAD DEP BOUNDS     =           0.2396       HEAD DEP BOUNDS     =           0.2396
      STREAM LEAKAGE     =          36.1791        STREAM LEAKAGE     =          36.1791
        UZF RECHARGE     =           0.0000          UZF RECHARGE     =           0.0000
               GW ET     =           0.0000                 GW ET     =           0.0000
     SURFACE LEAKAGE     =           0.0000       SURFACE LEAKAGE     =           0.0000
           AG WELLS      =           0.0000             AG WELLS      =           0.0000

               TOTAL OUT =          36.4186                 TOTAL OUT =          36.4186

                IN - OUT =       3.0518E-05                  IN - OUT =       3.0518E-05

     PERCENT DISCREPANCY =           0.00         PERCENT DISCREPANCY =           0.00






         TIME SUMMARY AT END OF TIME STEP    1 IN STRESS PERIOD    1
                    SECONDS     MINUTES      HOURS       DAYS        YEARS
                    -----------------------------------------------------------
   TIME STEP LENGTH  86400.      1440.0      24.000      1.0000     2.73785E-03
 STRESS PERIOD TIME  86400.      1440.0      24.000      1.0000     2.73785E-03
         TOTAL TIME  86400.      1440.0      24.000      1.0000     2.73785E-03
1
1
                            STRESS PERIOD NO.    2, LENGTH =   30.50000    
                            -----------------------------------------------

                              NUMBER OF TIME STEPS =    30

                               MULTIPLIER FOR DELT =     1.000

                            INITIAL TIME STEP SIZE =   1.016667    

 BOUND. NO. LAYER   ROW   COL     STAGE      CONDUCTANCE         
 ----------------------------------------------------------------
      1      1     13      1       988.0          0.3800E-01
      2      1     14      9       1045.          0.3800E-01

      2 GHB CELLS



 CLASSIFICATION & COUNT OF STREAM SEGMENTS BASED ON SOURCE OF INFLOW:

                HEADWATER     DIVERSION     RECEIVES TRIBUTARY FLOW
                ---------     ---------     -----------------------
                     4              1               4



                    INPUT DATA FOR EACH STREAM SEGMENT
 ---------------------------------------------------------------------------------------------

 SEGMENT    SEG.     INFLOW   OVERLAND   STREAM    STREAM   ICALC  OUTFLOW  DIVERSION PRIORITY
    NO.    LENGTH     RATE     RUNOFF      ET       PPT.    METH.  TO SEG.  FROM SEG.    NO.

      1  2.305E+04 5.000E+01 0.000E+00 0.000E+00 0.000E+00    1        2        0        0
      2  2.650E+04 0.000E+00 0.000E+00 0.000E+00 0.000E+00    1        6        0        0
      3  2.750E+04 0.000E+00 0.000E+00 0.000E+00 0.000E+00    1        5        0        0
      4  1.100E+04 1.000E+01 0.000E+00 0.000E+00 0.000E+00    1        5        0        0
      5  1.500E+04 0.000E+00 0.000E+00 0.000E+00 0.000E+00    1        6        0        0
      6  2.200E+04 0.000E+00 0.000E+00 0.000E+00 0.000E+00    1        8        0        0
      7  1.550E+04 1.500E+02 0.000E+00 0.000E+00 0.000E+00    1        8        0        0
      8  2.800E+04 0.000E+00 0.000E+00 0.000E+00 0.000E+00    1        0        0        0
      9  6.000E+03 1.000E+02 0.000E+00 0.000E+00 0.000E+00    1        0        2        0


         STREAMBED PROPERTIES AND STREAM DIMENSIONS

 SEGMENT     BED HYD. COND.      BED THICKNESS     ELEV.-TOP OF BED     WIDTH OF STREAM     DEPTH OF STREAM    STREAM ROUGHNESS
    No.     UPPER     LOWER     UPPER     LOWER     UPPER     LOWER     UPPER     LOWER     UPPER     LOWER   CHANNEL      BANK

     1  3.000E-05 7.730E-05 3.000E+00 3.000E+00 1.093E+03 1.077E+03 1.200E+01 1.200E+01                     3.000E-02
     2  3.000E-05 7.730E-05 3.000E+00 3.000E+00 1.072E+03 1.052E+03 1.200E+01 1.200E+01                     3.000E-02
     3  3.000E-05 7.730E-05 3.000E+00 3.000E+00 1.074E+03 1.061E+03 1.000E+01 1.000E+01                     3.000E-02
     4  3.000E-05 7.730E-05 3.000E+00 3.000E+00 1.078E+03 1.063E+03 1.000E+01 1.000E+01                     3.000E-02
     5  3.000E-05 7.730E-05 3.000E+00 3.000E+00 1.058E+03 1.046E+03 1.500E+01 1.500E+01                     3.000E-02
     6  3.000E-05 7.730E-05 3.000E+00 3.000E+00 1.043E+03 1.026E+03 1.200E+01 1.200E+01                     3.000E-02
     7  3.000E-05 6.000E-05 3.000E+00 3.000E+00 1.038E+03 1.027E+03 5.500E+01 5.500E+01                     3.000E-02
     8  3.000E-05 6.000E-05 3.000E+00 3.000E+00 1.022E+03 9.919E+02 4.000E+01 4.000E+01                     3.000E-02
     9  3.000E-05 1.000E-05 3.000E+00 3.000E+00 1.051E+03 1.050E+03 4.000E+00 4.000E+00                     3.000E-02






            AREAL INFILTRATION RATE
 READING ON UNIT   19 WITH FORMAT: (10E15.6)           

                  ET RATE =  5.000000E-10

 USING ET EXTINCTION DEPTH FROM PREVIOUS STRESS PERIOD. CURRENT PERIOD IS:       2

 USING EXTINCTION WATER CONTENT FROM PREVIOUS STRESS PERIOD. CURRENT PERIOD IS:       2

 PROCESSING AG STRESS PERIOD DATA

 READING AG STRESS PERIOD DATA

 READING IRRIGATION SEGMENT

 READING IRRIGATION WELL

 READING SUPPLEMENTAL WELL

 END PROCESSING AG STRESS PERIOD DATA OPTIONS
 
 SOLVING FOR HEAD 
          0                 1           1             3    5     1      -0.2624307630E-06       5   11    1        -0.6457268875E+00      0.2540721887E+01

    ------------------------------------------------
       NWT REQUIRED            1 OUTER ITERATIONS 
       AND A TOTAL OF          1 INNER ITERATIONS.
    ------------------------------------------------

 OUTPUT CONTROL FOR STRESS PERIOD    2   TIME STEP    1
    SAVE HEAD FOR ALL LAYERS
    SAVE BUDGET
 UBDSV1 SAVING "         STORAGE" ON UNIT 102 AT TIME STEP  1, STRESS PERIOD   2
 UBDSV2 SAVING "   CONSTANT HEAD" ON UNIT 102 AT TIME STEP  1, STRESS PERIOD   2
 UBDSV1 SAVING "FLOW RIGHT FACE " ON UNIT 102 AT TIME STEP  1, STRESS PERIOD   2
 UBDSV1 SAVING "FLOW FRONT FACE " ON UNIT 102 AT TIME STEP  1, STRESS PERIOD   2
 UBDSV4 SAVING " HEAD DEP BOUNDS" ON UNIT 102 AT TIME STEP  1, STRESS PERIOD   2
 UBDSV4 SAVING "  STREAM LEAKAGE" ON UNIT 102 AT TIME STEP  1, STRESS PERIOD   2



 UBUDSV SAVING "           GW ET" ON UNIT102 AT TIME STEP  1, STRESS PERIOD    2
 UBUDSV SAVING "    UZF RECHARGE" ON UNIT102 AT TIME STEP  1, STRESS PERIOD    2
 UBUDSV SAVING " SURFACE LEAKAGE" ON UNIT102 AT TIME STEP  1, STRESS PERIOD    2
 UBUDSV SAVING "       HORT+DUNN" ON UNIT102 AT TIME STEP  1, STRESS PERIOD    2
 UBUDSV SAVING "  STORAGE CHANGE" ON UNIT102 AT TIME STEP  1, STRESS PERIOD    2
 UBDSV4 SAVING "           AG WE" ON UNIT 102 AT TIME STEP  1, STRESS PERIOD   2

 HEAD WILL BE SAVED ON UNIT   51 AT END OF TIME STEP    1, STRESS PERIOD    2
 
 SOLVING FOR HEAD 
          0                 1           1             3    5     1      -0.2623512277E-06       5   11    1        -0.6466336269E+00      0.2548931948E+01

    ------------------------------------------------
       NWT REQUIRED            1 OUTER ITERATIONS 
       AND A TOTAL OF          1 INNER ITERATIONS.
    ------------------------------------------------

 OUTPUT CONTROL FOR STRESS PERIOD    2   TIME STEP    2
    SAVE HEAD FOR ALL LAYERS
    SAVE BUDGET
 UBDSV1 SAVING "         STORAGE" ON UNIT 102 AT TIME STEP  2, STRESS PERIOD   2
 UBDSV2 SAVING "   CONSTANT HEAD" ON UNIT 102 AT TIME STEP  2, STRESS PERIOD   2
 UBDSV1 SAVING "FLOW RIGHT FACE " ON UNIT 102 AT TIME STEP  2, STRESS PERIOD   2
 UBDSV1 SAVING "FLOW FRONT FACE " ON UNIT 102 AT TIME STEP  2, STRESS PERIOD   2
 UBDSV4 SAVING " HEAD DEP BOUNDS" ON UNIT 102 AT TIME STEP  2, STRESS PERIOD   2
 UBDSV4 SAVING "  STREAM LEAKAGE" ON UNIT 102 AT TIME STEP  2, STRESS PERIOD   2



 UBUDSV SAVING "           GW ET" ON UNIT102 AT TIME STEP  2, STRESS PERIOD    2
 UBUDSV SAVING "    UZF RECHARGE" ON UNIT102 AT TIME STEP  2, STRESS PERIOD    2
 UBUDSV SAVING " SURFACE LEAKAGE" ON UNIT102 AT TIME STEP  2, STRESS PERIOD    2
 UBUDSV SAVING "       HORT+DUNN" ON UNIT102 AT TIME STEP  2, STRESS PERIOD    2
 UBUDSV SAVING "  STORAGE CHANGE" ON UNIT102 AT TIME STEP  2, STRESS PERIOD    2
 UBDSV4 SAVING "           AG WE" ON UNIT 102 AT TIME STEP  2, STRESS PERIOD   2

 HEAD WILL BE SAVED ON UNIT   51 AT END OF TIME STEP    2, STRESS PERIOD    2
 
 SOLVING FOR HEAD 
          0                 1           1             3    5     1      -0.2611581980E-06       5   11    1        -0.6450381298E+00      0.2543185084E+01

    ------------------------------------------------
       NWT REQUIRED            1 OUTER ITERATIONS 
       AND A TOTAL OF          1 INNER ITERATIONS.
    ------------------------------------------------

 OUTPUT CONTROL FOR STRESS PERIOD    2   TIME STEP    3
    SAVE HEAD FOR ALL LAYERS
    SAVE BUDGET
 UBDSV1 SAVING "         STORAGE" ON UNIT 102 AT TIME STEP  3, STRESS PERIOD   2
 UBDSV2 SAVING "   CONSTANT HEAD" ON UNIT 102 AT TIME STEP  3, STRESS PERIOD   2
 UBDSV1 SAVING "FLOW RIGHT FACE " ON UNIT 102 AT TIME STEP  3, STRESS PERIOD   2
 UBDSV1 SAVING "FLOW FRONT FACE " ON UNIT 102 AT TIME STEP  3, STRESS PERIOD   2
 UBDSV4 SAVING " HEAD DEP BOUNDS" ON UNIT 102 AT TIME STEP  3, STRESS PERIOD   2
 UBDSV4 SAVING "  STREAM LEAKAGE" ON UNIT 102 AT TIME STEP  3, STRESS PERIOD   2



 UBUDSV SAVING "           GW ET" ON UNIT102 AT TIME STEP  3, STRESS PERIOD    2
 UBUDSV SAVING "    UZF RECHARGE" ON UNIT102 AT TIME STEP  3, STRESS PERIOD    2
 UBUDSV SAVING " SURFACE LEAKAGE" ON UNIT102 AT TIME STEP  3, STRESS PERIOD    2
 UBUDSV SAVING "       HORT+DUNN" ON UNIT102 AT TIME STEP  3, STRESS PERIOD    2
 UBUDSV SAVING "  STORAGE CHANGE" ON UNIT102 AT TIME STEP  3, STRESS PERIOD    2
 UBDSV4 SAVING "           AG WE" ON UNIT 102 AT TIME STEP  3, STRESS PERIOD   2

 HEAD WILL BE SAVED ON UNIT   51 AT END OF TIME STEP    3, STRESS PERIOD    2
 
 SOLVING FOR HEAD 
          0                 1           1             3    5     1      -0.2599701705E-06       5   11    1        -0.6434465665E+00      0.2536970372E+01

    ------------------------------------------------
       NWT REQUIRED            1 OUTER ITERATIONS 
       AND A TOTAL OF          1 INNER ITERATIONS.
    ------------------------------------------------

 OUTPUT CONTROL FOR STRESS PERIOD    2   TIME STEP    4
    SAVE HEAD FOR ALL LAYERS
    SAVE BUDGET
 UBDSV1 SAVING "         STORAGE" ON UNIT 102 AT TIME STEP  4, STRESS PERIOD   2
 UBDSV2 SAVING "   CONSTANT HEAD" ON UNIT 102 AT TIME STEP  4, STRESS PERIOD   2
 UBDSV1 SAVING "FLOW RIGHT FACE " ON UNIT 102 AT TIME STEP  4, STRESS PERIOD   2
 UBDSV1 SAVING "FLOW FRONT FACE " ON UNIT 102 AT TIME STEP  4, STRESS PERIOD   2
 UBDSV4 SAVING " HEAD DEP BOUNDS" ON UNIT 102 AT TIME STEP  4, STRESS PERIOD   2
 UBDSV4 SAVING "  STREAM LEAKAGE" ON UNIT 102 AT TIME STEP  4, STRESS PERIOD   2



 UBUDSV SAVING "           GW ET" ON UNIT102 AT TIME STEP  4, STRESS PERIOD    2
 UBUDSV SAVING "    UZF RECHARGE" ON UNIT102 AT TIME STEP  4, STRESS PERIOD    2
 UBUDSV SAVING " SURFACE LEAKAGE" ON UNIT102 AT TIME STEP  4, STRESS PERIOD    2
 UBUDSV SAVING "       HORT+DUNN" ON UNIT102 AT TIME STEP  4, STRESS PERIOD    2
 UBUDSV SAVING "  STORAGE CHANGE" ON UNIT102 AT TIME STEP  4, STRESS PERIOD    2
 UBDSV4 SAVING "           AG WE" ON UNIT 102 AT TIME STEP  4, STRESS PERIOD   2

 HEAD WILL BE SAVED ON UNIT   51 AT END OF TIME STEP    4, STRESS PERIOD    2
 
 SOLVING FOR HEAD 
          0                 1           1             3    5     1      -0.2587883959E-06       5   11    1        -0.6418589372E+00      0.2530503777E+01

    ------------------------------------------------
       NWT REQUIRED            1 OUTER ITERATIONS 
       AND A TOTAL OF          1 INNER ITERATIONS.
    ------------------------------------------------

 OUTPUT CONTROL FOR STRESS PERIOD    2   TIME STEP    5
    SAVE HEAD FOR ALL LAYERS
    SAVE BUDGET
 UBDSV1 SAVING "         STORAGE" ON UNIT 102 AT TIME STEP  5, STRESS PERIOD   2
 UBDSV2 SAVING "   CONSTANT HEAD" ON UNIT 102 AT TIME STEP  5, STRESS PERIOD   2
 UBDSV1 SAVING "FLOW RIGHT FACE " ON UNIT 102 AT TIME STEP  5, STRESS PERIOD   2
 UBDSV1 SAVING "FLOW FRONT FACE " ON UNIT 102 AT TIME STEP  5, STRESS PERIOD   2
 UBDSV4 SAVING " HEAD DEP BOUNDS" ON UNIT 102 AT TIME STEP  5, STRESS PERIOD   2
 UBDSV4 SAVING "  STREAM LEAKAGE" ON UNIT 102 AT TIME STEP  5, STRESS PERIOD   2



 UBUDSV SAVING "           GW ET" ON UNIT102 AT TIME STEP  5, STRESS PERIOD    2
 UBUDSV SAVING "    UZF RECHARGE" ON UNIT102 AT TIME STEP  5, STRESS PERIOD    2
 UBUDSV SAVING " SURFACE LEAKAGE" ON UNIT102 AT TIME STEP  5, STRESS PERIOD    2
 UBUDSV SAVING "       HORT+DUNN" ON UNIT102 AT TIME STEP  5, STRESS PERIOD    2
 UBUDSV SAVING "  STORAGE CHANGE" ON UNIT102 AT TIME STEP  5, STRESS PERIOD    2
 UBDSV4 SAVING "           AG WE" ON UNIT 102 AT TIME STEP  5, STRESS PERIOD   2

 HEAD WILL BE SAVED ON UNIT   51 AT END OF TIME STEP    5, STRESS PERIOD    2
 
 SOLVING FOR HEAD 
          0                 1           1             3    5     1      -0.2576116234E-06       5   11    1        -0.6402752213E+00      0.2523991841E+01

    ------------------------------------------------
       NWT REQUIRED            1 OUTER ITERATIONS 
       AND A TOTAL OF          1 INNER ITERATIONS.
    ------------------------------------------------

 OUTPUT CONTROL FOR STRESS PERIOD    2   TIME STEP    6
    SAVE HEAD FOR ALL LAYERS
    SAVE BUDGET
 UBDSV1 SAVING "         STORAGE" ON UNIT 102 AT TIME STEP  6, STRESS PERIOD   2
 UBDSV2 SAVING "   CONSTANT HEAD" ON UNIT 102 AT TIME STEP  6, STRESS PERIOD   2
 UBDSV1 SAVING "FLOW RIGHT FACE " ON UNIT 102 AT TIME STEP  6, STRESS PERIOD   2
 UBDSV1 SAVING "FLOW FRONT FACE " ON UNIT 102 AT TIME STEP  6, STRESS PERIOD   2
 UBDSV4 SAVING " HEAD DEP BOUNDS" ON UNIT 102 AT TIME STEP  6, STRESS PERIOD   2
 UBDSV4 SAVING "  STREAM LEAKAGE" ON UNIT 102 AT TIME STEP  6, STRESS PERIOD   2



 UBUDSV SAVING "           GW ET" ON UNIT102 AT TIME STEP  6, STRESS PERIOD    2
 UBUDSV SAVING "    UZF RECHARGE" ON UNIT102 AT TIME STEP  6, STRESS PERIOD    2
 UBUDSV SAVING " SURFACE LEAKAGE" ON UNIT102 AT TIME STEP  6, STRESS PERIOD    2
 UBUDSV SAVING "       HORT+DUNN" ON UNIT102 AT TIME STEP  6, STRESS PERIOD    2
 UBUDSV SAVING "  STORAGE CHANGE" ON UNIT102 AT TIME STEP  6, STRESS PERIOD    2
 UBDSV4 SAVING "           AG WE" ON UNIT 102 AT TIME STEP  6, STRESS PERIOD   2

 HEAD WILL BE SAVED ON UNIT   51 AT END OF TIME STEP    6, STRESS PERIOD    2
 
 SOLVING FOR HEAD 
          0                 1           1             3    5     1      -0.2564401033E-06       5   11    1        -0.6386954151E+00      0.2517500400E+01

    ------------------------------------------------
       NWT REQUIRED            1 OUTER ITERATIONS 
       AND A TOTAL OF          1 INNER ITERATIONS.
    ------------------------------------------------

 OUTPUT CONTROL FOR STRESS PERIOD    2   TIME STEP    7
    SAVE HEAD FOR ALL LAYERS
    SAVE BUDGET
 UBDSV1 SAVING "         STORAGE" ON UNIT 102 AT TIME STEP  7, STRESS PERIOD   2
 UBDSV2 SAVING "   CONSTANT HEAD" ON UNIT 102 AT TIME STEP  7, STRESS PERIOD   2
 UBDSV1 SAVING "FLOW RIGHT FACE " ON UNIT 102 AT TIME STEP  7, STRESS PERIOD   2
 UBDSV1 SAVING "FLOW FRONT FACE " ON UNIT 102 AT TIME STEP  7, STRESS PERIOD   2
 UBDSV4 SAVING " HEAD DEP BOUNDS" ON UNIT 102 AT TIME STEP  7, STRESS PERIOD   2
 UBDSV4 SAVING "  STREAM LEAKAGE" ON UNIT 102 AT TIME STEP  7, STRESS PERIOD   2



 UBUDSV SAVING "           GW ET" ON UNIT102 AT TIME STEP  7, STRESS PERIOD    2
 UBUDSV SAVING "    UZF RECHARGE" ON UNIT102 AT TIME STEP  7, STRESS PERIOD    2
 UBUDSV SAVING " SURFACE LEAKAGE" ON UNIT102 AT TIME STEP  7, STRESS PERIOD    2
 UBUDSV SAVING "       HORT+DUNN" ON UNIT102 AT TIME STEP  7, STRESS PERIOD    2
 UBUDSV SAVING "  STORAGE CHANGE" ON UNIT102 AT TIME STEP  7, STRESS PERIOD    2
 UBDSV4 SAVING "           AG WE" ON UNIT 102 AT TIME STEP  7, STRESS PERIOD   2

 HEAD WILL BE SAVED ON UNIT   51 AT END OF TIME STEP    7, STRESS PERIOD    2
 
 SOLVING FOR HEAD 
          0                 1           1             3    5     1      -0.2552738355E-06       5   11    1        -0.6371195018E+00      0.2511029383E+01

    ------------------------------------------------
       NWT REQUIRED            1 OUTER ITERATIONS 
       AND A TOTAL OF          1 INNER ITERATIONS.
    ------------------------------------------------

 OUTPUT CONTROL FOR STRESS PERIOD    2   TIME STEP    8
    SAVE HEAD FOR ALL LAYERS
    SAVE BUDGET
 UBDSV1 SAVING "         STORAGE" ON UNIT 102 AT TIME STEP  8, STRESS PERIOD   2
 UBDSV2 SAVING "   CONSTANT HEAD" ON UNIT 102 AT TIME STEP  8, STRESS PERIOD   2
 UBDSV1 SAVING "FLOW RIGHT FACE " ON UNIT 102 AT TIME STEP  8, STRESS PERIOD   2
 UBDSV1 SAVING "FLOW FRONT FACE " ON UNIT 102 AT TIME STEP  8, STRESS PERIOD   2
 UBDSV4 SAVING " HEAD DEP BOUNDS" ON UNIT 102 AT TIME STEP  8, STRESS PERIOD   2
 UBDSV4 SAVING "  STREAM LEAKAGE" ON UNIT 102 AT TIME STEP  8, STRESS PERIOD   2



 UBUDSV SAVING "           GW ET" ON UNIT102 AT TIME STEP  8, STRESS PERIOD    2
 UBUDSV SAVING "    UZF RECHARGE" ON UNIT102 AT TIME STEP  8, STRESS PERIOD    2
 UBUDSV SAVING " SURFACE LEAKAGE" ON UNIT102 AT TIME STEP  8, STRESS PERIOD    2
 UBUDSV SAVING "       HORT+DUNN" ON UNIT102 AT TIME STEP  8, STRESS PERIOD    2
 UBUDSV SAVING "  STORAGE CHANGE" ON UNIT102 AT TIME STEP  8, STRESS PERIOD    2
 UBDSV4 SAVING "           AG WE" ON UNIT 102 AT TIME STEP  8, STRESS PERIOD   2

 HEAD WILL BE SAVED ON UNIT   51 AT END OF TIME STEP    8, STRESS PERIOD    2
 
 SOLVING FOR HEAD 
          0                 1           1             3    5     1      -0.2541130701E-06       5   11    1        -0.6355474815E+00      0.2504578708E+01

    ------------------------------------------------
       NWT REQUIRED            1 OUTER ITERATIONS 
       AND A TOTAL OF          1 INNER ITERATIONS.
    ------------------------------------------------

 OUTPUT CONTROL FOR STRESS PERIOD    2   TIME STEP    9
    SAVE HEAD FOR ALL LAYERS
    SAVE BUDGET
 UBDSV1 SAVING "         STORAGE" ON UNIT 102 AT TIME STEP  9, STRESS PERIOD   2
 UBDSV2 SAVING "   CONSTANT HEAD" ON UNIT 102 AT TIME STEP  9, STRESS PERIOD   2
 UBDSV1 SAVING "FLOW RIGHT FACE " ON UNIT 102 AT TIME STEP  9, STRESS PERIOD   2
 UBDSV1 SAVING "FLOW FRONT FACE " ON UNIT 102 AT TIME STEP  9, STRESS PERIOD   2
 UBDSV4 SAVING " HEAD DEP BOUNDS" ON UNIT 102 AT TIME STEP  9, STRESS PERIOD   2
 UBDSV4 SAVING "  STREAM LEAKAGE" ON UNIT 102 AT TIME STEP  9, STRESS PERIOD   2



 UBUDSV SAVING "           GW ET" ON UNIT102 AT TIME STEP  9, STRESS PERIOD    2
 UBUDSV SAVING "    UZF RECHARGE" ON UNIT102 AT TIME STEP  9, STRESS PERIOD    2
 UBUDSV SAVING " SURFACE LEAKAGE" ON UNIT102 AT TIME STEP  9, STRESS PERIOD    2
 UBUDSV SAVING "       HORT+DUNN" ON UNIT102 AT TIME STEP  9, STRESS PERIOD    2
 UBUDSV SAVING "  STORAGE CHANGE" ON UNIT102 AT TIME STEP  9, STRESS PERIOD    2
 UBDSV4 SAVING "           AG WE" ON UNIT 102 AT TIME STEP  9, STRESS PERIOD   2

 HEAD WILL BE SAVED ON UNIT   51 AT END OF TIME STEP    9, STRESS PERIOD    2
 
 SOLVING FOR HEAD 
          0                 1           1             3    5     1      -0.2529575571E-06       5   11    1        -0.6339793410E+00      0.2498148306E+01

    ------------------------------------------------
       NWT REQUIRED            1 OUTER ITERATIONS 
       AND A TOTAL OF          1 INNER ITERATIONS.
    ------------------------------------------------

 OUTPUT CONTROL FOR STRESS PERIOD    2   TIME STEP   10
    SAVE HEAD FOR ALL LAYERS
    SAVE BUDGET
 UBDSV1 SAVING "         STORAGE" ON UNIT 102 AT TIME STEP 10, STRESS PERIOD   2
 UBDSV2 SAVING "   CONSTANT HEAD" ON UNIT 102 AT TIME STEP 10, STRESS PERIOD   2
 UBDSV1 SAVING "FLOW RIGHT FACE " ON UNIT 102 AT TIME STEP 10, STRESS PERIOD   2
 UBDSV1 SAVING "FLOW FRONT FACE " ON UNIT 102 AT TIME STEP 10, STRESS PERIOD   2
 UBDSV4 SAVING " HEAD DEP BOUNDS" ON UNIT 102 AT TIME STEP 10, STRESS PERIOD   2
 UBDSV4 SAVING "  STREAM LEAKAGE" ON UNIT 102 AT TIME STEP 10, STRESS PERIOD   2



 UBUDSV SAVING "           GW ET" ON UNIT102 AT TIME STEP 10, STRESS PERIOD    2
 UBUDSV SAVING "    UZF RECHARGE" ON UNIT102 AT TIME STEP 10, STRESS PERIOD    2
 UBUDSV SAVING " SURFACE LEAKAGE" ON UNIT102 AT TIME STEP 10, STRESS PERIOD    2
 UBUDSV SAVING "       HORT+DUNN" ON UNIT102 AT TIME STEP 10, STRESS PERIOD    2
 UBUDSV SAVING "  STORAGE CHANGE" ON UNIT102 AT TIME STEP 10, STRESS PERIOD    2
 UBDSV4 SAVING "           AG WE" ON UNIT 102 AT TIME STEP 10, STRESS PERIOD   2

 HEAD WILL BE SAVED ON UNIT   51 AT END OF TIME STEP   10, STRESS PERIOD    2
 
 SOLVING FOR HEAD 
          0                 1           1             3    5     1      -0.2518070463E-06       5   11    1        -0.6324150655E+00      0.2491738087E+01

    ------------------------------------------------
       NWT REQUIRED            1 OUTER ITERATIONS 
       AND A TOTAL OF          1 INNER ITERATIONS.
    ------------------------------------------------

 OUTPUT CONTROL FOR STRESS PERIOD    2   TIME STEP   11
    SAVE HEAD FOR ALL LAYERS
    SAVE BUDGET
 UBDSV1 SAVING "         STORAGE" ON UNIT 102 AT TIME STEP 11, STRESS PERIOD   2
 UBDSV2 SAVING "   CONSTANT HEAD" ON UNIT 102 AT TIME STEP 11, STRESS PERIOD   2
 UBDSV1 SAVING "FLOW RIGHT FACE " ON UNIT 102 AT TIME STEP 11, STRESS PERIOD   2
 UBDSV1 SAVING "FLOW FRONT FACE " ON UNIT 102 AT TIME STEP 11, STRESS PERIOD   2
 UBDSV4 SAVING " HEAD DEP BOUNDS" ON UNIT 102 AT TIME STEP 11, STRESS PERIOD   2
 UBDSV4 SAVING "  STREAM LEAKAGE" ON UNIT 102 AT TIME STEP 11, STRESS PERIOD   2



 UBUDSV SAVING "           GW ET" ON UNIT102 AT TIME STEP 11, STRESS PERIOD    2
 UBUDSV SAVING "    UZF RECHARGE" ON UNIT102 AT TIME STEP 11, STRESS PERIOD    2
 UBUDSV SAVING " SURFACE LEAKAGE" ON UNIT102 AT TIME STEP 11, STRESS PERIOD    2
 UBUDSV SAVING "       HORT+DUNN" ON UNIT102 AT TIME STEP 11, STRESS PERIOD    2
 UBUDSV SAVING "  STORAGE CHANGE" ON UNIT102 AT TIME STEP 11, STRESS PERIOD    2
 UBDSV4 SAVING "           AG WE" ON UNIT 102 AT TIME STEP 11, STRESS PERIOD   2

 HEAD WILL BE SAVED ON UNIT   51 AT END OF TIME STEP   11, STRESS PERIOD    2
 
 SOLVING FOR HEAD 
          0                 1           1             3    5     1      -0.2506620380E-06       5   11    1        -0.6308546532E+00      0.2485347982E+01

    ------------------------------------------------
       NWT REQUIRED            1 OUTER ITERATIONS 
       AND A TOTAL OF          1 INNER ITERATIONS.
    ------------------------------------------------

 OUTPUT CONTROL FOR STRESS PERIOD    2   TIME STEP   12
    SAVE HEAD FOR ALL LAYERS
    SAVE BUDGET
 UBDSV1 SAVING "         STORAGE" ON UNIT 102 AT TIME STEP 12, STRESS PERIOD   2
 UBDSV2 SAVING "   CONSTANT HEAD" ON UNIT 102 AT TIME STEP 12, STRESS PERIOD   2
 UBDSV1 SAVING "FLOW RIGHT FACE " ON UNIT 102 AT TIME STEP 12, STRESS PERIOD   2
 UBDSV1 SAVING "FLOW FRONT FACE " ON UNIT 102 AT TIME STEP 12, STRESS PERIOD   2
 UBDSV4 SAVING " HEAD DEP BOUNDS" ON UNIT 102 AT TIME STEP 12, STRESS PERIOD   2
 UBDSV4 SAVING "  STREAM LEAKAGE" ON UNIT 102 AT TIME STEP 12, STRESS PERIOD   2



 UBUDSV SAVING "           GW ET" ON UNIT102 AT TIME STEP 12, STRESS PERIOD    2
 UBUDSV SAVING "    UZF RECHARGE" ON UNIT102 AT TIME STEP 12, STRESS PERIOD    2
 UBUDSV SAVING " SURFACE LEAKAGE" ON UNIT102 AT TIME STEP 12, STRESS PERIOD    2
 UBUDSV SAVING "       HORT+DUNN" ON UNIT102 AT TIME STEP 12, STRESS PERIOD    2
 UBUDSV SAVING "  STORAGE CHANGE" ON UNIT102 AT TIME STEP 12, STRESS PERIOD    2
 UBDSV4 SAVING "           AG WE" ON UNIT 102 AT TIME STEP 12, STRESS PERIOD   2

 HEAD WILL BE SAVED ON UNIT   51 AT END OF TIME STEP   12, STRESS PERIOD    2
 
 SOLVING FOR HEAD 
          0                 1           1             3    5     1      -0.2495222819E-06       5   11    1        -0.6292980909E+00      0.2478977911E+01

    ------------------------------------------------
       NWT REQUIRED            1 OUTER ITERATIONS 
       AND A TOTAL OF          1 INNER ITERATIONS.
    ------------------------------------------------

 OUTPUT CONTROL FOR STRESS PERIOD    2   TIME STEP   13
    SAVE HEAD FOR ALL LAYERS
    SAVE BUDGET
 UBDSV1 SAVING "         STORAGE" ON UNIT 102 AT TIME STEP 13, STRESS PERIOD   2
 UBDSV2 SAVING "   CONSTANT HEAD" ON UNIT 102 AT TIME STEP 13, STRESS PERIOD   2
 UBDSV1 SAVING "FLOW RIGHT FACE " ON UNIT 102 AT TIME STEP 13, STRESS PERIOD   2
 UBDSV1 SAVING "FLOW FRONT FACE " ON UNIT 102 AT TIME STEP 13, STRESS PERIOD   2
 UBDSV4 SAVING " HEAD DEP BOUNDS" ON UNIT 102 AT TIME STEP 13, STRESS PERIOD   2
 UBDSV4 SAVING "  STREAM LEAKAGE" ON UNIT 102 AT TIME STEP 13, STRESS PERIOD   2



 UBUDSV SAVING "           GW ET" ON UNIT102 AT TIME STEP 13, STRESS PERIOD    2
 UBUDSV SAVING "    UZF RECHARGE" ON UNIT102 AT TIME STEP 13, STRESS PERIOD    2
 UBUDSV SAVING " SURFACE LEAKAGE" ON UNIT102 AT TIME STEP 13, STRESS PERIOD    2
 UBUDSV SAVING "       HORT+DUNN" ON UNIT102 AT TIME STEP 13, STRESS PERIOD    2
 UBUDSV SAVING "  STORAGE CHANGE" ON UNIT102 AT TIME STEP 13, STRESS PERIOD    2
 UBDSV4 SAVING "           AG WE" ON UNIT 102 AT TIME STEP 13, STRESS PERIOD   2

 HEAD WILL BE SAVED ON UNIT   51 AT END OF TIME STEP   13, STRESS PERIOD    2
 
 SOLVING FOR HEAD 
          0                 1           1             3    5     1      -0.2483875281E-06       5   11    1        -0.6277453639E+00      0.2472627798E+01

    ------------------------------------------------
       NWT REQUIRED            1 OUTER ITERATIONS 
       AND A TOTAL OF          1 INNER ITERATIONS.
    ------------------------------------------------

 OUTPUT CONTROL FOR STRESS PERIOD    2   TIME STEP   14
    SAVE HEAD FOR ALL LAYERS
    SAVE BUDGET
 UBDSV1 SAVING "         STORAGE" ON UNIT 102 AT TIME STEP 14, STRESS PERIOD   2
 UBDSV2 SAVING "   CONSTANT HEAD" ON UNIT 102 AT TIME STEP 14, STRESS PERIOD   2
 UBDSV1 SAVING "FLOW RIGHT FACE " ON UNIT 102 AT TIME STEP 14, STRESS PERIOD   2
 UBDSV1 SAVING "FLOW FRONT FACE " ON UNIT 102 AT TIME STEP 14, STRESS PERIOD   2
 UBDSV4 SAVING " HEAD DEP BOUNDS" ON UNIT 102 AT TIME STEP 14, STRESS PERIOD   2
 UBDSV4 SAVING "  STREAM LEAKAGE" ON UNIT 102 AT TIME STEP 14, STRESS PERIOD   2



 UBUDSV SAVING "           GW ET" ON UNIT102 AT TIME STEP 14, STRESS PERIOD    2
 UBUDSV SAVING "    UZF RECHARGE" ON UNIT102 AT TIME STEP 14, STRESS PERIOD    2
 UBUDSV SAVING " SURFACE LEAKAGE" ON UNIT102 AT TIME STEP 14, STRESS PERIOD    2
 UBUDSV SAVING "       HORT+DUNN" ON UNIT102 AT TIME STEP 14, STRESS PERIOD    2
 UBUDSV SAVING "  STORAGE CHANGE" ON UNIT102 AT TIME STEP 14, STRESS PERIOD    2
 UBDSV4 SAVING "           AG WE" ON UNIT 102 AT TIME STEP 14, STRESS PERIOD   2

 HEAD WILL BE SAVED ON UNIT   51 AT END OF TIME STEP   14, STRESS PERIOD    2
 
 SOLVING FOR HEAD 
          0                 1           1             3    5     1      -0.2472580267E-06       5   11    1        -0.6261964720E+00      0.2466297566E+01

    ------------------------------------------------
       NWT REQUIRED            1 OUTER ITERATIONS 
       AND A TOTAL OF          1 INNER ITERATIONS.
    ------------------------------------------------

 OUTPUT CONTROL FOR STRESS PERIOD    2   TIME STEP   15
    SAVE HEAD FOR ALL LAYERS
    SAVE BUDGET
 UBDSV1 SAVING "         STORAGE" ON UNIT 102 AT TIME STEP 15, STRESS PERIOD   2
 UBDSV2 SAVING "   CONSTANT HEAD" ON UNIT 102 AT TIME STEP 15, STRESS PERIOD   2
 UBDSV1 SAVING "FLOW RIGHT FACE " ON UNIT 102 AT TIME STEP 15, STRESS PERIOD   2
 UBDSV1 SAVING "FLOW FRONT FACE " ON UNIT 102 AT TIME STEP 15, STRESS PERIOD   2
 UBDSV4 SAVING " HEAD DEP BOUNDS" ON UNIT 102 AT TIME STEP 15, STRESS PERIOD   2
 UBDSV4 SAVING "  STREAM LEAKAGE" ON UNIT 102 AT TIME STEP 15, STRESS PERIOD   2



 UBUDSV SAVING "           GW ET" ON UNIT102 AT TIME STEP 15, STRESS PERIOD    2
 UBUDSV SAVING "    UZF RECHARGE" ON UNIT102 AT TIME STEP 15, STRESS PERIOD    2
 UBUDSV SAVING " SURFACE LEAKAGE" ON UNIT102 AT TIME STEP 15, STRESS PERIOD    2
 UBUDSV SAVING "       HORT+DUNN" ON UNIT102 AT TIME STEP 15, STRESS PERIOD    2
 UBUDSV SAVING "  STORAGE CHANGE" ON UNIT102 AT TIME STEP 15, STRESS PERIOD    2
 UBDSV4 SAVING "           AG WE" ON UNIT 102 AT TIME STEP 15, STRESS PERIOD   2

 HEAD WILL BE SAVED ON UNIT   51 AT END OF TIME STEP   15, STRESS PERIOD    2
 
 SOLVING FOR HEAD 
          0                 1           1             3    5     1      -0.2461335274E-06       5   11    1        -0.6246514004E+00      0.2459987143E+01

    ------------------------------------------------
       NWT REQUIRED            1 OUTER ITERATIONS 
       AND A TOTAL OF          1 INNER ITERATIONS.
    ------------------------------------------------

 OUTPUT CONTROL FOR STRESS PERIOD    2   TIME STEP   16
    SAVE HEAD FOR ALL LAYERS
    SAVE BUDGET
 UBDSV1 SAVING "         STORAGE" ON UNIT 102 AT TIME STEP 16, STRESS PERIOD   2
 UBDSV2 SAVING "   CONSTANT HEAD" ON UNIT 102 AT TIME STEP 16, STRESS PERIOD   2
 UBDSV1 SAVING "FLOW RIGHT FACE " ON UNIT 102 AT TIME STEP 16, STRESS PERIOD   2
 UBDSV1 SAVING "FLOW FRONT FACE " ON UNIT 102 AT TIME STEP 16, STRESS PERIOD   2
 UBDSV4 SAVING " HEAD DEP BOUNDS" ON UNIT 102 AT TIME STEP 16, STRESS PERIOD   2
 UBDSV4 SAVING "  STREAM LEAKAGE" ON UNIT 102 AT TIME STEP 16, STRESS PERIOD   2



 UBUDSV SAVING "           GW ET" ON UNIT102 AT TIME STEP 16, STRESS PERIOD    2
 UBUDSV SAVING "    UZF RECHARGE" ON UNIT102 AT TIME STEP 16, STRESS PERIOD    2
 UBUDSV SAVING " SURFACE LEAKAGE" ON UNIT102 AT TIME STEP 16, STRESS PERIOD    2
 UBUDSV SAVING "       HORT+DUNN" ON UNIT102 AT TIME STEP 16, STRESS PERIOD    2
 UBUDSV SAVING "  STORAGE CHANGE" ON UNIT102 AT TIME STEP 16, STRESS PERIOD    2
 UBDSV4 SAVING "           AG WE" ON UNIT 102 AT TIME STEP 16, STRESS PERIOD   2

 HEAD WILL BE SAVED ON UNIT   51 AT END OF TIME STEP   16, STRESS PERIOD    2
 
 SOLVING FOR HEAD 
          0                 1           1             3    5     1      -0.2450142805E-06       5   11    1        -0.6231101435E+00      0.2453696451E+01

    ------------------------------------------------
       NWT REQUIRED            1 OUTER ITERATIONS 
       AND A TOTAL OF          1 INNER ITERATIONS.
    ------------------------------------------------

 OUTPUT CONTROL FOR STRESS PERIOD    2   TIME STEP   17
    SAVE HEAD FOR ALL LAYERS
    SAVE BUDGET
 UBDSV1 SAVING "         STORAGE" ON UNIT 102 AT TIME STEP 17, STRESS PERIOD   2
 UBDSV2 SAVING "   CONSTANT HEAD" ON UNIT 102 AT TIME STEP 17, STRESS PERIOD   2
 UBDSV1 SAVING "FLOW RIGHT FACE " ON UNIT 102 AT TIME STEP 17, STRESS PERIOD   2
 UBDSV1 SAVING "FLOW FRONT FACE " ON UNIT 102 AT TIME STEP 17, STRESS PERIOD   2
 UBDSV4 SAVING " HEAD DEP BOUNDS" ON UNIT 102 AT TIME STEP 17, STRESS PERIOD   2
 UBDSV4 SAVING "  STREAM LEAKAGE" ON UNIT 102 AT TIME STEP 17, STRESS PERIOD   2



 UBUDSV SAVING "           GW ET" ON UNIT102 AT TIME STEP 17, STRESS PERIOD    2
 UBUDSV SAVING "    UZF RECHARGE" ON UNIT102 AT TIME STEP 17, STRESS PERIOD    2
 UBUDSV SAVING " SURFACE LEAKAGE" ON UNIT102 AT TIME STEP 17, STRESS PERIOD    2
 UBUDSV SAVING "       HORT+DUNN" ON UNIT102 AT TIME STEP 17, STRESS PERIOD    2
 UBUDSV SAVING "  STORAGE CHANGE" ON UNIT102 AT TIME STEP 17, STRESS PERIOD    2
 UBDSV4 SAVING "           AG WE" ON UNIT 102 AT TIME STEP 17, STRESS PERIOD   2

 HEAD WILL BE SAVED ON UNIT   51 AT END OF TIME STEP   17, STRESS PERIOD    2
 
 SOLVING FOR HEAD 
          0                 1           1             3    5     1      -0.2439002859E-06       5   11    1        -0.6215726901E+00      0.2447425411E+01

    ------------------------------------------------
       NWT REQUIRED            1 OUTER ITERATIONS 
       AND A TOTAL OF          1 INNER ITERATIONS.
    ------------------------------------------------

 OUTPUT CONTROL FOR STRESS PERIOD    2   TIME STEP   18
    SAVE HEAD FOR ALL LAYERS
    SAVE BUDGET
 UBDSV1 SAVING "         STORAGE" ON UNIT 102 AT TIME STEP 18, STRESS PERIOD   2
 UBDSV2 SAVING "   CONSTANT HEAD" ON UNIT 102 AT TIME STEP 18, STRESS PERIOD   2
 UBDSV1 SAVING "FLOW RIGHT FACE " ON UNIT 102 AT TIME STEP 18, STRESS PERIOD   2
 UBDSV1 SAVING "FLOW FRONT FACE " ON UNIT 102 AT TIME STEP 18, STRESS PERIOD   2
 UBDSV4 SAVING " HEAD DEP BOUNDS" ON UNIT 102 AT TIME STEP 18, STRESS PERIOD   2
 UBDSV4 SAVING "  STREAM LEAKAGE" ON UNIT 102 AT TIME STEP 18, STRESS PERIOD   2



 UBUDSV SAVING "           GW ET" ON UNIT102 AT TIME STEP 18, STRESS PERIOD    2
 UBUDSV SAVING "    UZF RECHARGE" ON UNIT102 AT TIME STEP 18, STRESS PERIOD    2
 UBUDSV SAVING " SURFACE LEAKAGE" ON UNIT102 AT TIME STEP 18, STRESS PERIOD    2
 UBUDSV SAVING "       HORT+DUNN" ON UNIT102 AT TIME STEP 18, STRESS PERIOD    2
 UBUDSV SAVING "  STORAGE CHANGE" ON UNIT102 AT TIME STEP 18, STRESS PERIOD    2
 UBDSV4 SAVING "           AG WE" ON UNIT 102 AT TIME STEP 18, STRESS PERIOD   2

 HEAD WILL BE SAVED ON UNIT   51 AT END OF TIME STEP   18, STRESS PERIOD    2
 
 SOLVING FOR HEAD 
          0                 1           1             3    5     1      -0.2427910434E-06       5   11    1        -0.6200390309E+00      0.2441173953E+01

    ------------------------------------------------
       NWT REQUIRED            1 OUTER ITERATIONS 
       AND A TOTAL OF          1 INNER ITERATIONS.
    ------------------------------------------------

 OUTPUT CONTROL FOR STRESS PERIOD    2   TIME STEP   19
    SAVE HEAD FOR ALL LAYERS
    SAVE BUDGET
 UBDSV1 SAVING "         STORAGE" ON UNIT 102 AT TIME STEP 19, STRESS PERIOD   2
 UBDSV2 SAVING "   CONSTANT HEAD" ON UNIT 102 AT TIME STEP 19, STRESS PERIOD   2
 UBDSV1 SAVING "FLOW RIGHT FACE " ON UNIT 102 AT TIME STEP 19, STRESS PERIOD   2
 UBDSV1 SAVING "FLOW FRONT FACE " ON UNIT 102 AT TIME STEP 19, STRESS PERIOD   2
 UBDSV4 SAVING " HEAD DEP BOUNDS" ON UNIT 102 AT TIME STEP 19, STRESS PERIOD   2
 UBDSV4 SAVING "  STREAM LEAKAGE" ON UNIT 102 AT TIME STEP 19, STRESS PERIOD   2



 UBUDSV SAVING "           GW ET" ON UNIT102 AT TIME STEP 19, STRESS PERIOD    2
 UBUDSV SAVING "    UZF RECHARGE" ON UNIT102 AT TIME STEP 19, STRESS PERIOD    2
 UBUDSV SAVING " SURFACE LEAKAGE" ON UNIT102 AT TIME STEP 19, STRESS PERIOD    2
 UBUDSV SAVING "       HORT+DUNN" ON UNIT102 AT TIME STEP 19, STRESS PERIOD    2
 UBUDSV SAVING "  STORAGE CHANGE" ON UNIT102 AT TIME STEP 19, STRESS PERIOD    2
 UBDSV4 SAVING "           AG WE" ON UNIT 102 AT TIME STEP 19, STRESS PERIOD   2

 HEAD WILL BE SAVED ON UNIT   51 AT END OF TIME STEP   19, STRESS PERIOD    2
 
 SOLVING FOR HEAD 
          0                 1           1             3    5     1      -0.2416870533E-06       5   11    1        -0.6185091529E+00      0.2434941997E+01

    ------------------------------------------------
       NWT REQUIRED            1 OUTER ITERATIONS 
       AND A TOTAL OF          1 INNER ITERATIONS.
    ------------------------------------------------

 OUTPUT CONTROL FOR STRESS PERIOD    2   TIME STEP   20
    SAVE HEAD FOR ALL LAYERS
    SAVE BUDGET
 UBDSV1 SAVING "         STORAGE" ON UNIT 102 AT TIME STEP 20, STRESS PERIOD   2
 UBDSV2 SAVING "   CONSTANT HEAD" ON UNIT 102 AT TIME STEP 20, STRESS PERIOD   2
 UBDSV1 SAVING "FLOW RIGHT FACE " ON UNIT 102 AT TIME STEP 20, STRESS PERIOD   2
 UBDSV1 SAVING "FLOW FRONT FACE " ON UNIT 102 AT TIME STEP 20, STRESS PERIOD   2
 UBDSV4 SAVING " HEAD DEP BOUNDS" ON UNIT 102 AT TIME STEP 20, STRESS PERIOD   2
 UBDSV4 SAVING "  STREAM LEAKAGE" ON UNIT 102 AT TIME STEP 20, STRESS PERIOD   2



 UBUDSV SAVING "           GW ET" ON UNIT102 AT TIME STEP 20, STRESS PERIOD    2
 UBUDSV SAVING "    UZF RECHARGE" ON UNIT102 AT TIME STEP 20, STRESS PERIOD    2
 UBUDSV SAVING " SURFACE LEAKAGE" ON UNIT102 AT TIME STEP 20, STRESS PERIOD    2
 UBUDSV SAVING "       HORT+DUNN" ON UNIT102 AT TIME STEP 20, STRESS PERIOD    2
 UBUDSV SAVING "  STORAGE CHANGE" ON UNIT102 AT TIME STEP 20, STRESS PERIOD    2
 UBDSV4 SAVING "           AG WE" ON UNIT 102 AT TIME STEP 20, STRESS PERIOD   2

 HEAD WILL BE SAVED ON UNIT   51 AT END OF TIME STEP   20, STRESS PERIOD    2
 
 SOLVING FOR HEAD 
          0                 1           1             3    5     1      -0.2405878152E-06       5   11    1        -0.6169830486E+00      0.2428729475E+01

    ------------------------------------------------
       NWT REQUIRED            1 OUTER ITERATIONS 
       AND A TOTAL OF          1 INNER ITERATIONS.
    ------------------------------------------------

 OUTPUT CONTROL FOR STRESS PERIOD    2   TIME STEP   21
    SAVE HEAD FOR ALL LAYERS
    SAVE BUDGET
 UBDSV1 SAVING "         STORAGE" ON UNIT 102 AT TIME STEP 21, STRESS PERIOD   2
 UBDSV2 SAVING "   CONSTANT HEAD" ON UNIT 102 AT TIME STEP 21, STRESS PERIOD   2
 UBDSV1 SAVING "FLOW RIGHT FACE " ON UNIT 102 AT TIME STEP 21, STRESS PERIOD   2
 UBDSV1 SAVING "FLOW FRONT FACE " ON UNIT 102 AT TIME STEP 21, STRESS PERIOD   2
 UBDSV4 SAVING " HEAD DEP BOUNDS" ON UNIT 102 AT TIME STEP 21, STRESS PERIOD   2
 UBDSV4 SAVING "  STREAM LEAKAGE" ON UNIT 102 AT TIME STEP 21, STRESS PERIOD   2



 UBUDSV SAVING "           GW ET" ON UNIT102 AT TIME STEP 21, STRESS PERIOD    2
 UBUDSV SAVING "    UZF RECHARGE" ON UNIT102 AT TIME STEP 21, STRESS PERIOD    2
 UBUDSV SAVING " SURFACE LEAKAGE" ON UNIT102 AT TIME STEP 21, STRESS PERIOD    2
 UBUDSV SAVING "       HORT+DUNN" ON UNIT102 AT TIME STEP 21, STRESS PERIOD    2
 UBUDSV SAVING "  STORAGE CHANGE" ON UNIT102 AT TIME STEP 21, STRESS PERIOD    2
 UBDSV4 SAVING "           AG WE" ON UNIT 102 AT TIME STEP 21, STRESS PERIOD   2

 HEAD WILL BE SAVED ON UNIT   51 AT END OF TIME STEP   21, STRESS PERIOD    2
 
 SOLVING FOR HEAD 
          0                 1           1             3    5     1      -0.2394938295E-06       5   11    1        -0.6154607125E+00      0.2422536315E+01

    ------------------------------------------------
       NWT REQUIRED            1 OUTER ITERATIONS 
       AND A TOTAL OF          1 INNER ITERATIONS.
    ------------------------------------------------

 OUTPUT CONTROL FOR STRESS PERIOD    2   TIME STEP   22
    SAVE HEAD FOR ALL LAYERS
    SAVE BUDGET
 UBDSV1 SAVING "         STORAGE" ON UNIT 102 AT TIME STEP 22, STRESS PERIOD   2
 UBDSV2 SAVING "   CONSTANT HEAD" ON UNIT 102 AT TIME STEP 22, STRESS PERIOD   2
 UBDSV1 SAVING "FLOW RIGHT FACE " ON UNIT 102 AT TIME STEP 22, STRESS PERIOD   2
 UBDSV1 SAVING "FLOW FRONT FACE " ON UNIT 102 AT TIME STEP 22, STRESS PERIOD   2
 UBDSV4 SAVING " HEAD DEP BOUNDS" ON UNIT 102 AT TIME STEP 22, STRESS PERIOD   2
 UBDSV4 SAVING "  STREAM LEAKAGE" ON UNIT 102 AT TIME STEP 22, STRESS PERIOD   2



 UBUDSV SAVING "           GW ET" ON UNIT102 AT TIME STEP 22, STRESS PERIOD    2
 UBUDSV SAVING "    UZF RECHARGE" ON UNIT102 AT TIME STEP 22, STRESS PERIOD    2
 UBUDSV SAVING " SURFACE LEAKAGE" ON UNIT102 AT TIME STEP 22, STRESS PERIOD    2
 UBUDSV SAVING "       HORT+DUNN" ON UNIT102 AT TIME STEP 22, STRESS PERIOD    2
 UBUDSV SAVING "  STORAGE CHANGE" ON UNIT102 AT TIME STEP 22, STRESS PERIOD    2
 UBDSV4 SAVING "           AG WE" ON UNIT 102 AT TIME STEP 22, STRESS PERIOD   2

 HEAD WILL BE SAVED ON UNIT   51 AT END OF TIME STEP   22, STRESS PERIOD    2
 
 SOLVING FOR HEAD 
          0                 1           1             3    5     1      -0.2384045959E-06       5   11    1        -0.6139421333E+00      0.2416362442E+01

    ------------------------------------------------
       NWT REQUIRED            1 OUTER ITERATIONS 
       AND A TOTAL OF          1 INNER ITERATIONS.
    ------------------------------------------------

 OUTPUT CONTROL FOR STRESS PERIOD    2   TIME STEP   23
    SAVE HEAD FOR ALL LAYERS
    SAVE BUDGET
 UBDSV1 SAVING "         STORAGE" ON UNIT 102 AT TIME STEP 23, STRESS PERIOD   2
 UBDSV2 SAVING "   CONSTANT HEAD" ON UNIT 102 AT TIME STEP 23, STRESS PERIOD   2
 UBDSV1 SAVING "FLOW RIGHT FACE " ON UNIT 102 AT TIME STEP 23, STRESS PERIOD   2
 UBDSV1 SAVING "FLOW FRONT FACE " ON UNIT 102 AT TIME STEP 23, STRESS PERIOD   2
 UBDSV4 SAVING " HEAD DEP BOUNDS" ON UNIT 102 AT TIME STEP 23, STRESS PERIOD   2
 UBDSV4 SAVING "  STREAM LEAKAGE" ON UNIT 102 AT TIME STEP 23, STRESS PERIOD   2



 UBUDSV SAVING "           GW ET" ON UNIT102 AT TIME STEP 23, STRESS PERIOD    2
 UBUDSV SAVING "    UZF RECHARGE" ON UNIT102 AT TIME STEP 23, STRESS PERIOD    2
 UBUDSV SAVING " SURFACE LEAKAGE" ON UNIT102 AT TIME STEP 23, STRESS PERIOD    2
 UBUDSV SAVING "       HORT+DUNN" ON UNIT102 AT TIME STEP 23, STRESS PERIOD    2
 UBUDSV SAVING "  STORAGE CHANGE" ON UNIT102 AT TIME STEP 23, STRESS PERIOD    2
 UBDSV4 SAVING "           AG WE" ON UNIT 102 AT TIME STEP 23, STRESS PERIOD   2

 HEAD WILL BE SAVED ON UNIT   51 AT END OF TIME STEP   23, STRESS PERIOD    2
 
 SOLVING FOR HEAD 
          0                 1           1             3    5     1      -0.2373206147E-06       5   11    1        -0.6124272998E+00      0.2410207775E+01

    ------------------------------------------------
       NWT REQUIRED            1 OUTER ITERATIONS 
       AND A TOTAL OF          1 INNER ITERATIONS.
    ------------------------------------------------

 OUTPUT CONTROL FOR STRESS PERIOD    2   TIME STEP   24
    SAVE HEAD FOR ALL LAYERS
    SAVE BUDGET
 UBDSV1 SAVING "         STORAGE" ON UNIT 102 AT TIME STEP 24, STRESS PERIOD   2
 UBDSV2 SAVING "   CONSTANT HEAD" ON UNIT 102 AT TIME STEP 24, STRESS PERIOD   2
 UBDSV1 SAVING "FLOW RIGHT FACE " ON UNIT 102 AT TIME STEP 24, STRESS PERIOD   2
 UBDSV1 SAVING "FLOW FRONT FACE " ON UNIT 102 AT TIME STEP 24, STRESS PERIOD   2
 UBDSV4 SAVING " HEAD DEP BOUNDS" ON UNIT 102 AT TIME STEP 24, STRESS PERIOD   2
 UBDSV4 SAVING "  STREAM LEAKAGE" ON UNIT 102 AT TIME STEP 24, STRESS PERIOD   2



 UBUDSV SAVING "           GW ET" ON UNIT102 AT TIME STEP 24, STRESS PERIOD    2
 UBUDSV SAVING "    UZF RECHARGE" ON UNIT102 AT TIME STEP 24, STRESS PERIOD    2
 UBUDSV SAVING " SURFACE LEAKAGE" ON UNIT102 AT TIME STEP 24, STRESS PERIOD    2
 UBUDSV SAVING "       HORT+DUNN" ON UNIT102 AT TIME STEP 24, STRESS PERIOD    2
 UBUDSV SAVING "  STORAGE CHANGE" ON UNIT102 AT TIME STEP 24, STRESS PERIOD    2
 UBDSV4 SAVING "           AG WE" ON UNIT 102 AT TIME STEP 24, STRESS PERIOD   2

 HEAD WILL BE SAVED ON UNIT   51 AT END OF TIME STEP   24, STRESS PERIOD    2
 
 SOLVING FOR HEAD 
[...]

 OUTPUT CONTROL FOR STRESS PERIOD   49   TIME STEP   22
    SAVE HEAD FOR ALL LAYERS
    SAVE BUDGET
 UBDSV1 SAVING "         STORAGE" ON UNIT 102 AT TIME STEP 22, STRESS PERIOD  49
 UBDSV2 SAVING "   CONSTANT HEAD" ON UNIT 102 AT TIME STEP 22, STRESS PERIOD  49
 UBDSV1 SAVING "FLOW RIGHT FACE " ON UNIT 102 AT TIME STEP 22, STRESS PERIOD  49
 UBDSV1 SAVING "FLOW FRONT FACE " ON UNIT 102 AT TIME STEP 22, STRESS PERIOD  49
 UBDSV4 SAVING " HEAD DEP BOUNDS" ON UNIT 102 AT TIME STEP 22, STRESS PERIOD  49
 UBDSV4 SAVING "  STREAM LEAKAGE" ON UNIT 102 AT TIME STEP 22, STRESS PERIOD  49



 UBUDSV SAVING "           GW ET" ON UNIT102 AT TIME STEP 22, STRESS PERIOD   49
 UBUDSV SAVING "    UZF RECHARGE" ON UNIT102 AT TIME STEP 22, STRESS PERIOD   49
 UBUDSV SAVING " SURFACE LEAKAGE" ON UNIT102 AT TIME STEP 22, STRESS PERIOD   49
 UBUDSV SAVING "       HORT+DUNN" ON UNIT102 AT TIME STEP 22, STRESS PERIOD   49
 UBUDSV SAVING "  STORAGE CHANGE" ON UNIT102 AT TIME STEP 22, STRESS PERIOD   49
 UBDSV4 SAVING "           AG WE" ON UNIT 102 AT TIME STEP 22, STRESS PERIOD  49

 HEAD WILL BE SAVED ON UNIT   51 AT END OF TIME STEP   22, STRESS PERIOD   49
 
 SOLVING FOR HEAD 
          0                 1           1             5    7     1       0.8877691483E-07       5    7    1         0.3979157824E+00      0.9190110039E+00

    ------------------------------------------------
       NWT REQUIRED            1 OUTER ITERATIONS 
       AND A TOTAL OF          1 INNER ITERATIONS.
    ------------------------------------------------

 OUTPUT CONTROL FOR STRESS PERIOD   49   TIME STEP   23
    SAVE HEAD FOR ALL LAYERS
    SAVE BUDGET
 UBDSV1 SAVING "         STORAGE" ON UNIT 102 AT TIME STEP 23, STRESS PERIOD  49
 UBDSV2 SAVING "   CONSTANT HEAD" ON UNIT 102 AT TIME STEP 23, STRESS PERIOD  49
 UBDSV1 SAVING "FLOW RIGHT FACE " ON UNIT 102 AT TIME STEP 23, STRESS PERIOD  49
 UBDSV1 SAVING "FLOW FRONT FACE " ON UNIT 102 AT TIME STEP 23, STRESS PERIOD  49
 UBDSV4 SAVING " HEAD DEP BOUNDS" ON UNIT 102 AT TIME STEP 23, STRESS PERIOD  49
 UBDSV4 SAVING "  STREAM LEAKAGE" ON UNIT 102 AT TIME STEP 23, STRESS PERIOD  49



 UBUDSV SAVING "           GW ET" ON UNIT102 AT TIME STEP 23, STRESS PERIOD   49
 UBUDSV SAVING "    UZF RECHARGE" ON UNIT102 AT TIME STEP 23, STRESS PERIOD   49
 UBUDSV SAVING " SURFACE LEAKAGE" ON UNIT102 AT TIME STEP 23, STRESS PERIOD   49
 UBUDSV SAVING "       HORT+DUNN" ON UNIT102 AT TIME STEP 23, STRESS PERIOD   49
 UBUDSV SAVING "  STORAGE CHANGE" ON UNIT102 AT TIME STEP 23, STRESS PERIOD   49
 UBDSV4 SAVING "           AG WE" ON UNIT 102 AT TIME STEP 23, STRESS PERIOD  49

 HEAD WILL BE SAVED ON UNIT   51 AT END OF TIME STEP   23, STRESS PERIOD   49
 
 SOLVING FOR HEAD 
          0                 1           1             5    7     1       0.8853105567E-07       5    7    1         0.3968150429E+00      0.9166776188E+00

    ------------------------------------------------
       NWT REQUIRED            1 OUTER ITERATIONS 
       AND A TOTAL OF          1 INNER ITERATIONS.
    ------------------------------------------------

 OUTPUT CONTROL FOR STRESS PERIOD   49   TIME STEP   24
    SAVE HEAD FOR ALL LAYERS
    SAVE BUDGET
 UBDSV1 SAVING "         STORAGE" ON UNIT 102 AT TIME STEP 24, STRESS PERIOD  49
 UBDSV2 SAVING "   CONSTANT HEAD" ON UNIT 102 AT TIME STEP 24, STRESS PERIOD  49
 UBDSV1 SAVING "FLOW RIGHT FACE " ON UNIT 102 AT TIME STEP 24, STRESS PERIOD  49
 UBDSV1 SAVING "FLOW FRONT FACE " ON UNIT 102 AT TIME STEP 24, STRESS PERIOD  49
 UBDSV4 SAVING " HEAD DEP BOUNDS" ON UNIT 102 AT TIME STEP 24, STRESS PERIOD  49
 UBDSV4 SAVING "  STREAM LEAKAGE" ON UNIT 102 AT TIME STEP 24, STRESS PERIOD  49



 UBUDSV SAVING "           GW ET" ON UNIT102 AT TIME STEP 24, STRESS PERIOD   49
 UBUDSV SAVING "    UZF RECHARGE" ON UNIT102 AT TIME STEP 24, STRESS PERIOD   49
 UBUDSV SAVING " SURFACE LEAKAGE" ON UNIT102 AT TIME STEP 24, STRESS PERIOD   49
 UBUDSV SAVING "       HORT+DUNN" ON UNIT102 AT TIME STEP 24, STRESS PERIOD   49
 UBUDSV SAVING "  STORAGE CHANGE" ON UNIT102 AT TIME STEP 24, STRESS PERIOD   49
 UBDSV4 SAVING "           AG WE" ON UNIT 102 AT TIME STEP 24, STRESS PERIOD  49

 HEAD WILL BE SAVED ON UNIT   51 AT END OF TIME STEP   24, STRESS PERIOD   49
 
 SOLVING FOR HEAD 
          0                 1           1             5    7     1       0.8828619696E-07       5    7    1         0.3957173489E+00      0.9143503294E+00

    ------------------------------------------------
       NWT REQUIRED            1 OUTER ITERATIONS 
       AND A TOTAL OF          1 INNER ITERATIONS.
    ------------------------------------------------

 OUTPUT CONTROL FOR STRESS PERIOD   49   TIME STEP   25
    SAVE HEAD FOR ALL LAYERS
    SAVE BUDGET
 UBDSV1 SAVING "         STORAGE" ON UNIT 102 AT TIME STEP 25, STRESS PERIOD  49
 UBDSV2 SAVING "   CONSTANT HEAD" ON UNIT 102 AT TIME STEP 25, STRESS PERIOD  49
 UBDSV1 SAVING "FLOW RIGHT FACE " ON UNIT 102 AT TIME STEP 25, STRESS PERIOD  49
 UBDSV1 SAVING "FLOW FRONT FACE " ON UNIT 102 AT TIME STEP 25, STRESS PERIOD  49
 UBDSV4 SAVING " HEAD DEP BOUNDS" ON UNIT 102 AT TIME STEP 25, STRESS PERIOD  49
 UBDSV4 SAVING "  STREAM LEAKAGE" ON UNIT 102 AT TIME STEP 25, STRESS PERIOD  49



 UBUDSV SAVING "           GW ET" ON UNIT102 AT TIME STEP 25, STRESS PERIOD   49
 UBUDSV SAVING "    UZF RECHARGE" ON UNIT102 AT TIME STEP 25, STRESS PERIOD   49
 UBUDSV SAVING " SURFACE LEAKAGE" ON UNIT102 AT TIME STEP 25, STRESS PERIOD   49
 UBUDSV SAVING "       HORT+DUNN" ON UNIT102 AT TIME STEP 25, STRESS PERIOD   49
 UBUDSV SAVING "  STORAGE CHANGE" ON UNIT102 AT TIME STEP 25, STRESS PERIOD   49
 UBDSV4 SAVING "           AG WE" ON UNIT 102 AT TIME STEP 25, STRESS PERIOD  49

 HEAD WILL BE SAVED ON UNIT   51 AT END OF TIME STEP   25, STRESS PERIOD   49
 
 SOLVING FOR HEAD 
          0                 1           1             5    7     1       0.8804183847E-07       5    7    1         0.3946226966E+00      0.9120291236E+00

    ------------------------------------------------
       NWT REQUIRED            1 OUTER ITERATIONS 
       AND A TOTAL OF          1 INNER ITERATIONS.
    ------------------------------------------------

 OUTPUT CONTROL FOR STRESS PERIOD   49   TIME STEP   26
    SAVE HEAD FOR ALL LAYERS
    SAVE BUDGET
 UBDSV1 SAVING "         STORAGE" ON UNIT 102 AT TIME STEP 26, STRESS PERIOD  49
 UBDSV2 SAVING "   CONSTANT HEAD" ON UNIT 102 AT TIME STEP 26, STRESS PERIOD  49
 UBDSV1 SAVING "FLOW RIGHT FACE " ON UNIT 102 AT TIME STEP 26, STRESS PERIOD  49
 UBDSV1 SAVING "FLOW FRONT FACE " ON UNIT 102 AT TIME STEP 26, STRESS PERIOD  49
 UBDSV4 SAVING " HEAD DEP BOUNDS" ON UNIT 102 AT TIME STEP 26, STRESS PERIOD  49
 UBDSV4 SAVING "  STREAM LEAKAGE" ON UNIT 102 AT TIME STEP 26, STRESS PERIOD  49



 UBUDSV SAVING "           GW ET" ON UNIT102 AT TIME STEP 26, STRESS PERIOD   49
 UBUDSV SAVING "    UZF RECHARGE" ON UNIT102 AT TIME STEP 26, STRESS PERIOD   49
 UBUDSV SAVING " SURFACE LEAKAGE" ON UNIT102 AT TIME STEP 26, STRESS PERIOD   49
 UBUDSV SAVING "       HORT+DUNN" ON UNIT102 AT TIME STEP 26, STRESS PERIOD   49
 UBUDSV SAVING "  STORAGE CHANGE" ON UNIT102 AT TIME STEP 26, STRESS PERIOD   49
 UBDSV4 SAVING "           AG WE" ON UNIT 102 AT TIME STEP 26, STRESS PERIOD  49

 HEAD WILL BE SAVED ON UNIT   51 AT END OF TIME STEP   26, STRESS PERIOD   49
 
 SOLVING FOR HEAD 
          0                 1           1             5    7     1       0.8779823032E-07       5    7    1         0.3935310654E+00      0.9097139797E+00

    ------------------------------------------------
       NWT REQUIRED            1 OUTER ITERATIONS 
       AND A TOTAL OF          1 INNER ITERATIONS.
    ------------------------------------------------

 OUTPUT CONTROL FOR STRESS PERIOD   49   TIME STEP   27
    SAVE HEAD FOR ALL LAYERS
    SAVE BUDGET
 UBDSV1 SAVING "         STORAGE" ON UNIT 102 AT TIME STEP 27, STRESS PERIOD  49
 UBDSV2 SAVING "   CONSTANT HEAD" ON UNIT 102 AT TIME STEP 27, STRESS PERIOD  49
 UBDSV1 SAVING "FLOW RIGHT FACE " ON UNIT 102 AT TIME STEP 27, STRESS PERIOD  49
 UBDSV1 SAVING "FLOW FRONT FACE " ON UNIT 102 AT TIME STEP 27, STRESS PERIOD  49
 UBDSV4 SAVING " HEAD DEP BOUNDS" ON UNIT 102 AT TIME STEP 27, STRESS PERIOD  49
 UBDSV4 SAVING "  STREAM LEAKAGE" ON UNIT 102 AT TIME STEP 27, STRESS PERIOD  49



 UBUDSV SAVING "           GW ET" ON UNIT102 AT TIME STEP 27, STRESS PERIOD   49
 UBUDSV SAVING "    UZF RECHARGE" ON UNIT102 AT TIME STEP 27, STRESS PERIOD   49
 UBUDSV SAVING " SURFACE LEAKAGE" ON UNIT102 AT TIME STEP 27, STRESS PERIOD   49
 UBUDSV SAVING "       HORT+DUNN" ON UNIT102 AT TIME STEP 27, STRESS PERIOD   49
 UBUDSV SAVING "  STORAGE CHANGE" ON UNIT102 AT TIME STEP 27, STRESS PERIOD   49
 UBDSV4 SAVING "           AG WE" ON UNIT 102 AT TIME STEP 27, STRESS PERIOD  49

 HEAD WILL BE SAVED ON UNIT   51 AT END OF TIME STEP   27, STRESS PERIOD   49
 
 SOLVING FOR HEAD 
          0                 1           1             5    7     1       0.8755562260E-07       5    7    1         0.3924424592E+00      0.9074048881E+00

    ------------------------------------------------
       NWT REQUIRED            1 OUTER ITERATIONS 
       AND A TOTAL OF          1 INNER ITERATIONS.
    ------------------------------------------------

 OUTPUT CONTROL FOR STRESS PERIOD   49   TIME STEP   28
    SAVE HEAD FOR ALL LAYERS
    SAVE BUDGET
 UBDSV1 SAVING "         STORAGE" ON UNIT 102 AT TIME STEP 28, STRESS PERIOD  49
 UBDSV2 SAVING "   CONSTANT HEAD" ON UNIT 102 AT TIME STEP 28, STRESS PERIOD  49
 UBDSV1 SAVING "FLOW RIGHT FACE " ON UNIT 102 AT TIME STEP 28, STRESS PERIOD  49
 UBDSV1 SAVING "FLOW FRONT FACE " ON UNIT 102 AT TIME STEP 28, STRESS PERIOD  49
 UBDSV4 SAVING " HEAD DEP BOUNDS" ON UNIT 102 AT TIME STEP 28, STRESS PERIOD  49
 UBDSV4 SAVING "  STREAM LEAKAGE" ON UNIT 102 AT TIME STEP 28, STRESS PERIOD  49



 UBUDSV SAVING "           GW ET" ON UNIT102 AT TIME STEP 28, STRESS PERIOD   49
 UBUDSV SAVING "    UZF RECHARGE" ON UNIT102 AT TIME STEP 28, STRESS PERIOD   49
 UBUDSV SAVING " SURFACE LEAKAGE" ON UNIT102 AT TIME STEP 28, STRESS PERIOD   49
 UBUDSV SAVING "       HORT+DUNN" ON UNIT102 AT TIME STEP 28, STRESS PERIOD   49
 UBUDSV SAVING "  STORAGE CHANGE" ON UNIT102 AT TIME STEP 28, STRESS PERIOD   49
 UBDSV4 SAVING "           AG WE" ON UNIT 102 AT TIME STEP 28, STRESS PERIOD  49

 HEAD WILL BE SAVED ON UNIT   51 AT END OF TIME STEP   28, STRESS PERIOD   49
 
 SOLVING FOR HEAD 
          0                 1           1             5    7     1       0.8731326500E-07       5    7    1         0.3913568631E+00      0.9051018295E+00

    ------------------------------------------------
       NWT REQUIRED            1 OUTER ITERATIONS 
       AND A TOTAL OF          1 INNER ITERATIONS.
    ------------------------------------------------

 OUTPUT CONTROL FOR STRESS PERIOD   49   TIME STEP   29
    SAVE HEAD FOR ALL LAYERS
    SAVE BUDGET
 UBDSV1 SAVING "         STORAGE" ON UNIT 102 AT TIME STEP 29, STRESS PERIOD  49
 UBDSV2 SAVING "   CONSTANT HEAD" ON UNIT 102 AT TIME STEP 29, STRESS PERIOD  49
 UBDSV1 SAVING "FLOW RIGHT FACE " ON UNIT 102 AT TIME STEP 29, STRESS PERIOD  49
 UBDSV1 SAVING "FLOW FRONT FACE " ON UNIT 102 AT TIME STEP 29, STRESS PERIOD  49
 UBDSV4 SAVING " HEAD DEP BOUNDS" ON UNIT 102 AT TIME STEP 29, STRESS PERIOD  49
 UBDSV4 SAVING "  STREAM LEAKAGE" ON UNIT 102 AT TIME STEP 29, STRESS PERIOD  49



 UBUDSV SAVING "           GW ET" ON UNIT102 AT TIME STEP 29, STRESS PERIOD   49
 UBUDSV SAVING "    UZF RECHARGE" ON UNIT102 AT TIME STEP 29, STRESS PERIOD   49
 UBUDSV SAVING " SURFACE LEAKAGE" ON UNIT102 AT TIME STEP 29, STRESS PERIOD   49
 UBUDSV SAVING "       HORT+DUNN" ON UNIT102 AT TIME STEP 29, STRESS PERIOD   49
 UBUDSV SAVING "  STORAGE CHANGE" ON UNIT102 AT TIME STEP 29, STRESS PERIOD   49
 UBDSV4 SAVING "           AG WE" ON UNIT 102 AT TIME STEP 29, STRESS PERIOD  49

 HEAD WILL BE SAVED ON UNIT   51 AT END OF TIME STEP   29, STRESS PERIOD   49
 
 SOLVING FOR HEAD 
          0                 1           1             5    7     1       0.8707190785E-07       5    7    1         0.3902742695E+00      0.9028047899E+00

    ------------------------------------------------
       NWT REQUIRED            1 OUTER ITERATIONS 
       AND A TOTAL OF          1 INNER ITERATIONS.
    ------------------------------------------------

 OUTPUT CONTROL FOR STRESS PERIOD   49   TIME STEP   30
    SAVE HEAD FOR ALL LAYERS
    SAVE BUDGET
 UBDSV1 SAVING "         STORAGE" ON UNIT 102 AT TIME STEP 30, STRESS PERIOD  49
 UBDSV2 SAVING "   CONSTANT HEAD" ON UNIT 102 AT TIME STEP 30, STRESS PERIOD  49
 UBDSV1 SAVING "FLOW RIGHT FACE " ON UNIT 102 AT TIME STEP 30, STRESS PERIOD  49
 UBDSV1 SAVING "FLOW FRONT FACE " ON UNIT 102 AT TIME STEP 30, STRESS PERIOD  49
 UBDSV4 SAVING " HEAD DEP BOUNDS" ON UNIT 102 AT TIME STEP 30, STRESS PERIOD  49
 UBDSV4 SAVING "  STREAM LEAKAGE" ON UNIT 102 AT TIME STEP 30, STRESS PERIOD  49



 UBUDSV SAVING "           GW ET" ON UNIT102 AT TIME STEP 30, STRESS PERIOD   49
 UBUDSV SAVING "    UZF RECHARGE" ON UNIT102 AT TIME STEP 30, STRESS PERIOD   49
 UBUDSV SAVING " SURFACE LEAKAGE" ON UNIT102 AT TIME STEP 30, STRESS PERIOD   49
 UBUDSV SAVING "       HORT+DUNN" ON UNIT102 AT TIME STEP 30, STRESS PERIOD   49
 UBUDSV SAVING "  STORAGE CHANGE" ON UNIT102 AT TIME STEP 30, STRESS PERIOD   49


UNSATURATED ZONE PACKAGE VOLUMETRIC BUDGET FOR  TIME STEP    30 STRESS PERIOD   49
  ------------------------------------------------------------------------------



     CUMULATIVE VOLUMES      L**3       RATES FOR THIS TIME STEP      L**3/T
     ------------------                 ------------------------

           IN:                                      IN:
           ---                                      ---
        INFILTRATION =       13043.1148          INFILTRATION =           0.9222

          OUT:                                     OUT:
          ----                                     ----
              UZF ET =          37.5021                UZF ET =           0.0003
        UZF RECHARGE =        1862.6148          UZF RECHARGE =           0.7570

            IN - OUT =       11142.9979              IN - OUT =           0.1650

          STORAGE:                                 STORAGE:
          --------                                 --------
      STORAGE CHANGE =       11113.1661        STORAGE CHANGE =           0.1398

 PERCENT DISCREPANCY IS DIFFERENCE BETWEEN IN-OUT MINUS CHANGE IN STORAGE
 DIVIDED BY THE AVERAGE OF IN AND OUT TIMES 100

 PERCENT DISCREPANCY =           0.06     PERCENT DISCREPANCY =           2.73






 UBDSV4 SAVING "           AG WE" ON UNIT 102 AT TIME STEP 30, STRESS PERIOD  49
1
  VOLUMETRIC BUDGET FOR AGRICULTURAL FIELDS AT TIME STEP   30, STRESS PERIOD  49
  ------------------------------------------------------------------------------

     CUMULATIVE VOLUMES      L**3       RATES FOR THIS TIME STEP      L**3/T
     ------------------                 ------------------------

           IN:                                      IN:
           ---                                      ---
               AG WELLS  =           0.0000                 AG WELLS  =           0.0000
      DIVERSION SEGMENTS =       11801.5947        DIVERSION SEGMENTS =       7.4709E-02
           GW IRRIGATION =           0.0000             GW IRRIGATION =           0.0000
           SW IRRIGATION =           0.0000             SW IRRIGATION =           0.0000
        SYSTEM LOSSES GW =           0.0000          SYSTEM LOSSES GW =           0.0000
        SYSTEM LOSSES SW =           0.0000          SYSTEM LOSSES SW =           0.0000

                TOTAL IN =       11801.5947                  TOTAL IN =       7.4709E-02

          OUT:                                     OUT:
          ----                                     ----
               AG WELLS  =           0.0000                 AG WELLS  =           0.0000
      DIVERSION SEGMENTS =           0.0000        DIVERSION SEGMENTS =           0.0000
           GW IRRIGATION =           0.0000             GW IRRIGATION =           0.0000
           SW IRRIGATION =       11801.6104             SW IRRIGATION =       7.4710E-02
        SYSTEM LOSSES GW =           0.0000          SYSTEM LOSSES GW =           0.0000
        SYSTEM LOSSES SW =           0.0000          SYSTEM LOSSES SW =           0.0000

               TOTAL OUT =       11801.6104                 TOTAL OUT =       7.4710E-02

                IN - OUT =      -1.5625E-02                  IN - OUT =      -1.4901E-07

     PERCENT DISCREPANCY =          -0.00         PERCENT DISCREPANCY =          -0.00




 HEAD WILL BE SAVED ON UNIT   51 AT END OF TIME STEP   30, STRESS PERIOD   49
1
  VOLUMETRIC BUDGET FOR ENTIRE MODEL AT END OF TIME STEP   30, STRESS PERIOD  49
  ------------------------------------------------------------------------------

     CUMULATIVE VOLUMES      L**3       RATES FOR THIS TIME STEP      L**3/T
     ------------------                 ------------------------

           IN:                                      IN:
           ---                                      ---
             STORAGE     =        8571.0801               STORAGE     =           0.2393
       CONSTANT HEAD     =           0.0000         CONSTANT HEAD     =           0.0000
     HEAD DEP BOUNDS     =         514.2568       HEAD DEP BOUNDS     =           0.3510
      STREAM LEAKAGE     =       51597.9219        STREAM LEAKAGE     =          35.2198
        UZF RECHARGE     =        1862.6139          UZF RECHARGE     =           0.7570
               GW ET     =           0.0000                 GW ET     =           0.0000
     SURFACE LEAKAGE     =           0.0000       SURFACE LEAKAGE     =           0.0000
           AG WELLS      =           0.0000             AG WELLS      =           0.0000

                TOTAL IN =       62545.8711                  TOTAL IN =          36.5671

          OUT:                                     OUT:
          ----                                     ----
             STORAGE     =         555.2708               STORAGE     =           0.2138
       CONSTANT HEAD     =           0.0000         CONSTANT HEAD     =           0.0000
     HEAD DEP BOUNDS     =         350.9633       HEAD DEP BOUNDS     =           0.2396
      STREAM LEAKAGE     =       53001.5938        STREAM LEAKAGE     =          36.1791
        UZF RECHARGE     =           0.0000          UZF RECHARGE     =           0.0000
               GW ET     =           0.0000                 GW ET     =           0.0000
     SURFACE LEAKAGE     =           0.0000       SURFACE LEAKAGE     =           0.0000
           AG WELLS      =        7048.9106             AG WELLS      =           0.0000

               TOTAL OUT =       60956.7383                 TOTAL OUT =          36.6324

                IN - OUT =        1589.1328                  IN - OUT =      -6.5327E-02

     PERCENT DISCREPANCY =           2.57         PERCENT DISCREPANCY =          -0.18






         TIME SUMMARY AT END OF TIME STEP   30 IN STRESS PERIOD   49
                    SECONDS     MINUTES      HOURS       DAYS        YEARS
                    -----------------------------------------------------------
   TIME STEP LENGTH  87840.      1464.0      24.400      1.0167     2.78348E-03
 STRESS PERIOD TIME 2.63520E+06  43920.      732.00      30.500     8.35044E-02
         TOTAL TIME 1.26578E+08 2.10963E+06  35161.      1465.0      4.0110    
1

 Run end date and time (yyyy/mm/dd hh:mm:ss): 2022/07/26 14:28:18
 Elapsed run time:  1.317 Seconds

